Version,
8.1.0.009;

SimulationControl,
No,
No,
No,
Yes,
Yes;

Building,
Detached,
0.0,
Urban,
0.04,
0.4,
FullExterior,
25,
6;

SurfaceConvectionAlgorithm:Inside,
TARP;

SurfaceConvectionAlgorithm:Outside,
TARP;

HeatBalanceAlgorithm,
ConductionTransferFunction,
200;

Timestep,
6;

RunPeriod,
,
1,
1,
1,
31,
Monday,
Yes,
Yes,
No,
Yes,
Yes,
1;

Site:GroundTemperature:BuildingSurface,
8.3,
6.4,
5.8,
6.3,
8.9,
11.7,
14.4,
16.4,
17,
16.1,
13.8,
11;

ScheduleTypeLimits,
Control,
0,
4,
Discrete,
Control;

ScheduleTypeLimits,
Thermal,
-20.0,
60.0,
Continuous,
Temperature;

ScheduleTypeLimits,
Fraction,
0.0,
10.0,
Continuous,
Dimensionless;

ScheduleTypeLimits,
Number,
0.0,
1000000000.0,
Continuous,
Dimensionless;

Material,
Spruce_0.0125,
Rough,
0.0125,
0.09,
455,
1500,
0.9,
0.7,
0.7;

Material,
Concrete_0.01,
Rough,
0.01,
1.6,
2300,
850,
0.9,
0.7,
0.7;

Material,
GlassFiberFloor_0.0065,
Rough,
0.006499999986350003,
0.04,
80,
840,
0.9,
0.7,
0.7;

Material,
AirGapRoof_0.0001,
Rough,
0.23765562370158158,
0.02485,
1.204,
1004,
0.9,
0.7,
0.7;

Material,
AirGap_0.1,
Rough,
0.1,
0.02485,
1.204,
1004,
0.9,
0.7,
0.7;

Material,
Concrete_0.04,
Rough,
0.04,
1.6,
2300,
850,
0.9,
0.7,
0.7;

Material,
Gypsum_0.1,
Rough,
0.1,
0.2,
850,
850,
0.9,
0.6,
0.7;

Material,
Gypsum_0.01,
Rough,
0.01,
0.2,
850,
850,
0.9,
0.6,
0.7;

Material,
CelluloseInsExt_0.1,
Rough,
0.0004763884829097642,
0.04,
55,
1880,
0.9,
0.7,
0.7;

Material,
Spruce_0.05,
Rough,
0.05,
0.09,
455,
1500,
0.9,
0.7,
0.7;

Material,
Brick_0.11,
Rough,
0.11,
0.6,
1712,
850,
0.9,
0.7,
0.7;

Material,
Concrete_0.5,
Rough,
0.5,
1.6,
2300,
850,
0.9,
0.7,
0.7;

Material,
Spruce_0.04,
Rough,
0.04,
0.09,
455,
1500,
0.9,
0.7,
0.7;

Material,
Brick_0.1,
Rough,
0.1,
0.6,
1712,
850,
0.9,
0.7,
0.7;

WindowMaterial:Glazing,
Glass_0.01,
SpectralAverage,
,
0.01,
0.775,
0.071,
0.071,
0.881,
0.08,
0.08,
0.0,
0.84,
0.84,
0.9;

WindowMaterial:Gas,
GasWin_0.01,
Air,
0.008027067456118803;

WindowMaterial:Shade,
Drapes_0.004,
0.05,
0.3,
0.05,
0.3,
0.9,
0.0,
0.004,
0.1,
0.05,
1.0,
1.0,
0.0,
0.0,
0.0;

Construction,
LoftCeiling_RandomU,
Gypsum_0.01,
AirGapRoof_0.0001,
Spruce_0.0125,
Concrete_0.01;

Construction,
Suspended_Wooden_Floor,
Gypsum_0.01,
AirGap_0.1,
Spruce_0.05;

Construction,
3.10_Roof,
Concrete_0.04,
Gypsum_0.01;

Construction,
FLOOR_RandomU,
Concrete_0.5,
GlassFiberFloor_0.0065,
Gypsum_0.1;

Construction,
Wooden_Door,
Spruce_0.04;

Construction,
LoftFloor_RandomU,
Concrete_0.01,
Spruce_0.0125,
AirGapRoof_0.0001,
Gypsum_0.01;

Construction,
Single_Brick_Internal_Wall,
Gypsum_0.01,
Brick_0.1,
Gypsum_0.01;

Construction,
SOLID_BRICK_RandomU,
Brick_0.11,
CelluloseInsExt_0.1,
Gypsum_0.01;

Construction,
Suspended_Wooden_Ceiling,
Spruce_0.05,
AirGap_0.1,
Gypsum_0.01;

Construction,
Curtains,
Glass_0.01,
GasWin_0.01,
Glass_0.01,
Drapes_0.004;

Construction,
Window_RandomU,
Glass_0.01,
GasWin_0.01,
Glass_0.01;

AirflowNetwork:SimulationControl,
AF1,
MultiZoneWithoutDistribution,
Input,
WParray,
ExternalNode,
LowRise,
500,
ZeroNodePressures,
0.0001,
1.E-6,
-0.5,
0,
1;

AirflowNetwork:MultiZone:ReferenceCrackConditions,
RCC1,
20,
101325,
0;

AirflowNetwork:MultiZone:WindPressureCoefficientArray,
WParray,
0.0,
30.0,
60.0,
90.0,
120.0,
150.0,
180.0,
210.0,
240.0,
270.0,
300.0,
330.0,
360.0;

AirflowNetwork:MultiZone:WindPressureCoefficientValues,
Floor,
WParray,
0,
0,
0,
0,
0,
0,
0,
0,
0,
0,
0,
0,
0;

AirflowNetwork:MultiZone:WindPressureCoefficientValues,
L3,
WParray,
-0.452,
-0.37,
-0.632,
-0.34,
0.183,
0.48,
0.603,
0.48,
0.183,
-0.34,
-0.632,
-0.37,
-0.452;

AirflowNetwork:MultiZone:WindPressureCoefficientValues,
Ceiling,
WParray,
0,
0,
0,
0,
0,
0,
0,
0,
0,
0,
0,
0,
0;

AirflowNetwork:MultiZone:WindPressureCoefficientValues,
L4,
WParray,
-0.34,
-0.632,
-0.37,
-0.452,
-0.37,
-0.632,
-0.34,
0.183,
0.48,
0.603,
0.603,
0.48,
0.183;

AirflowNetwork:MultiZone:WindPressureCoefficientValues,
L1,
WParray,
0.603,
0.48,
0.183,
-0.34,
-0.632,
-0.37,
-0.452,
-0.37,
-0.632,
-0.34,
0.183,
0.48,
0.603;

AirflowNetwork:MultiZone:WindPressureCoefficientValues,
L2,
WParray,
-0.34,
0.183,
0.48,
0.603,
0.603,
0.48,
0.183,
-0.34,
-0.632,
-0.37,
-0.452,
-0.37,
-0.632;

ZoneAirContaminantBalance,
No,
,
Yes,
Gas_PM25_test_Outside_Contaminant_;

GlobalGeometryRules,
UpperLeftCorner,
CounterClockwise,
Relative;

Shading:Building:Detailed,
House6_0,
,
4,
-14.200000000000003,
-15.2,
0.0,
-14.2,
-15.2,
5.1,
-16.2,
-15.2,
5.1,
-16.2,
-15.2,
0.0;

Shading:Building:Detailed,
House6_1,
,
4,
-14.200000000000003,
-7.6,
0.0,
-14.2,
-7.6,
5.1,
-10.6,
-7.6,
5.1,
-10.6,
-7.6,
0.0;

Shading:Building:Detailed,
House6_2,
,
4,
-10.600000000000003,
-7.6,
0.0,
-10.6,
-7.6,
5.1,
-10.6,
-11.4,
5.1,
-10.6,
-11.4,
0.0;

Shading:Building:Detailed,
House6_3,
,
4,
-10.600000000000003,
-11.399999999999999,
0.0,
-10.6,
-11.4,
5.1,
-10.6,
-15.2,
5.1,
-10.6,
-15.2,
0.0;

Shading:Building:Detailed,
House6_4,
,
4,
-10.600000000000003,
-15.2,
0.0,
-10.6,
-15.2,
5.1,
-14.2,
-15.2,
5.1,
-14.2,
-15.2,
0.0;

Shading:Building:Detailed,
House6_5,
,
4,
-16.200000000000003,
-15.2,
0.0,
-16.2,
-15.2,
5.1,
-17.2,
-15.2,
5.1,
-17.2,
-15.2,
0.0;

Shading:Building:Detailed,
House6_6,
,
4,
-17.200000000000003,
-7.6,
0.0,
-17.2,
-7.6,
5.1,
-14.2,
-7.6,
5.1,
-14.2,
-7.6,
0.0;

Shading:Building:Detailed,
House6_7,
,
4,
-17.200000000000003,
-10.0,
0.0,
-17.2,
-10.0,
5.1,
-17.2,
-7.6,
5.1,
-17.2,
-7.6,
0.0;

Shading:Building:Detailed,
House6_8,
,
4,
-21.200000000000003,
-10.0,
0.0,
-21.2,
-10.0,
5.1,
-17.2,
-10.0,
5.1,
-17.2,
-10.0,
0.0;

Shading:Building:Detailed,
House6_9,
,
4,
-17.200000000000003,
-15.2,
0.0,
-17.2,
-15.2,
5.1,
-21.2,
-15.2,
5.1,
-21.2,
-15.2,
0.0;

Shading:Building:Detailed,
House6_10,
,
4,
-21.200000000000003,
-15.2,
0.0,
-21.2,
-15.2,
5.1,
-21.2,
-10.0,
5.1,
-21.2,
-10.0,
0.0;

Shading:Building:Detailed,
House2_0,
,
4,
7.0,
15.2,
0.0,
7.0,
15.2,
5.1,
5.0,
15.2,
5.1,
5.0,
15.2,
0.0;

Shading:Building:Detailed,
House2_1,
,
4,
7.0,
22.799999999999997,
0.0,
7.0,
22.8,
5.1,
10.6,
22.8,
5.1,
10.6,
22.8,
0.0;

Shading:Building:Detailed,
House2_2,
,
4,
10.6,
22.799999999999997,
0.0,
10.6,
22.8,
5.1,
10.6,
19.0,
5.1,
10.6,
19.0,
0.0;

Shading:Building:Detailed,
House2_3,
,
4,
10.6,
19.0,
0.0,
10.6,
19.0,
5.1,
10.6,
15.2,
5.1,
10.6,
15.2,
0.0;

Shading:Building:Detailed,
House2_4,
,
4,
10.6,
15.2,
0.0,
10.6,
15.2,
5.1,
7.0,
15.2,
5.1,
7.0,
15.2,
0.0;

Shading:Building:Detailed,
House2_5,
,
4,
5.0,
15.2,
0.0,
5.0,
15.2,
5.1,
4.0,
15.2,
5.1,
4.0,
15.2,
0.0;

Shading:Building:Detailed,
House2_6,
,
4,
4.0,
22.799999999999997,
0.0,
4.0,
22.8,
5.1,
7.0,
22.8,
5.1,
7.0,
22.8,
0.0;

Shading:Building:Detailed,
House2_7,
,
4,
4.0,
20.4,
0.0,
4.0,
20.4,
5.1,
4.0,
22.8,
5.1,
4.0,
22.8,
0.0;

Shading:Building:Detailed,
House2_8,
,
4,
0.0,
20.4,
0.0,
0.0,
20.4,
5.1,
4.0,
20.4,
5.1,
4.0,
20.4,
0.0;

Shading:Building:Detailed,
House2_9,
,
4,
4.0,
15.2,
0.0,
4.0,
15.2,
5.1,
0.0,
15.2,
5.1,
0.0,
15.2,
0.0;

Shading:Building:Detailed,
House2_10,
,
4,
0.0,
15.2,
0.0,
0.0,
15.2,
5.1,
0.0,
20.4,
5.1,
0.0,
20.4,
0.0;

Shading:Building:Detailed,
House1_0,
,
4,
-14.200000000000003,
15.2,
0.0,
-14.2,
15.2,
5.1,
-16.2,
15.2,
5.1,
-16.2,
15.2,
0.0;

Shading:Building:Detailed,
House1_1,
,
4,
-14.200000000000003,
22.799999999999997,
0.0,
-14.2,
22.8,
5.1,
-10.6,
22.8,
5.1,
-10.6,
22.8,
0.0;

Shading:Building:Detailed,
House1_2,
,
4,
-10.600000000000003,
22.799999999999997,
0.0,
-10.6,
22.8,
5.1,
-10.6,
19.0,
5.1,
-10.6,
19.0,
0.0;

Shading:Building:Detailed,
House1_3,
,
4,
-10.600000000000003,
19.0,
0.0,
-10.6,
19.0,
5.1,
-10.6,
15.2,
5.1,
-10.6,
15.2,
0.0;

Shading:Building:Detailed,
House1_4,
,
4,
-10.600000000000003,
15.2,
0.0,
-10.6,
15.2,
5.1,
-14.2,
15.2,
5.1,
-14.2,
15.2,
0.0;

Shading:Building:Detailed,
House1_5,
,
4,
-16.200000000000003,
15.2,
0.0,
-16.2,
15.2,
5.1,
-17.2,
15.2,
5.1,
-17.2,
15.2,
0.0;

Shading:Building:Detailed,
House1_6,
,
4,
-17.200000000000003,
22.799999999999997,
0.0,
-17.2,
22.8,
5.1,
-14.2,
22.8,
5.1,
-14.2,
22.8,
0.0;

Shading:Building:Detailed,
House1_7,
,
4,
-17.200000000000003,
20.4,
0.0,
-17.2,
20.4,
5.1,
-17.2,
22.8,
5.1,
-17.2,
22.8,
0.0;

Shading:Building:Detailed,
House1_8,
,
4,
-21.200000000000003,
20.4,
0.0,
-21.2,
20.4,
5.1,
-17.2,
20.4,
5.1,
-17.2,
20.4,
0.0;

Shading:Building:Detailed,
House1_9,
,
4,
-17.200000000000003,
15.2,
0.0,
-17.2,
15.2,
5.1,
-21.2,
15.2,
5.1,
-21.2,
15.2,
0.0;

Shading:Building:Detailed,
House1_10,
,
4,
-21.200000000000003,
15.2,
0.0,
-21.2,
15.2,
5.1,
-21.2,
20.4,
5.1,
-21.2,
20.4,
0.0;

Shading:Building:Detailed,
House8_0,
,
4,
28.200000000000003,
-15.2,
0.0,
28.2,
-15.2,
5.1,
26.2,
-15.2,
5.1,
26.2,
-15.2,
0.0;

Shading:Building:Detailed,
House8_1,
,
4,
28.200000000000003,
-7.6,
0.0,
28.2,
-7.6,
5.1,
31.8,
-7.6,
5.1,
31.8,
-7.6,
0.0;

Shading:Building:Detailed,
House8_2,
,
4,
31.800000000000004,
-7.6,
0.0,
31.8,
-7.6,
5.1,
31.8,
-11.4,
5.1,
31.8,
-11.4,
0.0;

Shading:Building:Detailed,
House8_3,
,
4,
31.800000000000004,
-11.399999999999999,
0.0,
31.8,
-11.4,
5.1,
31.8,
-15.2,
5.1,
31.8,
-15.2,
0.0;

Shading:Building:Detailed,
House8_4,
,
4,
31.800000000000004,
-15.2,
0.0,
31.8,
-15.2,
5.1,
28.2,
-15.2,
5.1,
28.2,
-15.2,
0.0;

Shading:Building:Detailed,
House8_5,
,
4,
26.200000000000003,
-15.2,
0.0,
26.2,
-15.2,
5.1,
25.2,
-15.2,
5.1,
25.2,
-15.2,
0.0;

Shading:Building:Detailed,
House8_6,
,
4,
25.200000000000003,
-7.6,
0.0,
25.2,
-7.6,
5.1,
28.2,
-7.6,
5.1,
28.2,
-7.6,
0.0;

Shading:Building:Detailed,
House8_7,
,
4,
25.200000000000003,
-10.0,
0.0,
25.2,
-10.0,
5.1,
25.2,
-7.6,
5.1,
25.2,
-7.6,
0.0;

Shading:Building:Detailed,
House8_8,
,
4,
21.200000000000003,
-10.0,
0.0,
21.2,
-10.0,
5.1,
25.2,
-10.0,
5.1,
25.2,
-10.0,
0.0;

Shading:Building:Detailed,
House8_9,
,
4,
25.200000000000003,
-15.2,
0.0,
25.2,
-15.2,
5.1,
21.2,
-15.2,
5.1,
21.2,
-15.2,
0.0;

Shading:Building:Detailed,
House8_10,
,
4,
21.200000000000003,
-15.2,
0.0,
21.2,
-15.2,
5.1,
21.2,
-10.0,
5.1,
21.2,
-10.0,
0.0;

Shading:Building:Detailed,
House4_0,
,
4,
-14.200000000000003,
0.0,
0.0,
-14.2,
0.0,
5.1,
-16.2,
0.0,
5.1,
-16.2,
0.0,
0.0;

Shading:Building:Detailed,
House4_1,
,
4,
-14.200000000000003,
7.6,
0.0,
-14.2,
7.6,
5.1,
-10.6,
7.6,
5.1,
-10.6,
7.6,
0.0;

Shading:Building:Detailed,
House4_2,
,
4,
-10.600000000000003,
7.6,
0.0,
-10.6,
7.6,
5.1,
-10.6,
3.8,
5.1,
-10.6,
3.8,
0.0;

Shading:Building:Detailed,
House4_3,
,
4,
-10.600000000000003,
3.8,
0.0,
-10.6,
3.8,
5.1,
-10.6,
0.0,
5.1,
-10.6,
0.0,
0.0;

Shading:Building:Detailed,
House4_4,
,
4,
-10.600000000000003,
0.0,
0.0,
-10.6,
0.0,
5.1,
-14.2,
0.0,
5.1,
-14.2,
0.0,
0.0;

Shading:Building:Detailed,
House4_5,
,
4,
-16.200000000000003,
0.0,
0.0,
-16.2,
0.0,
5.1,
-17.2,
0.0,
5.1,
-17.2,
0.0,
0.0;

Shading:Building:Detailed,
House4_6,
,
4,
-17.200000000000003,
7.6,
0.0,
-17.2,
7.6,
5.1,
-14.2,
7.6,
5.1,
-14.2,
7.6,
0.0;

Shading:Building:Detailed,
House4_7,
,
4,
-17.200000000000003,
5.199999999999999,
0.0,
-17.2,
5.2,
5.1,
-17.2,
7.6,
5.1,
-17.2,
7.6,
0.0;

Shading:Building:Detailed,
House4_8,
,
4,
-21.200000000000003,
5.2,
0.0,
-21.2,
5.2,
5.1,
-17.2,
5.2,
5.1,
-17.2,
5.2,
0.0;

Shading:Building:Detailed,
House4_9,
,
4,
-17.200000000000003,
0.0,
0.0,
-17.2,
0.0,
5.1,
-21.2,
0.0,
5.1,
-21.2,
0.0,
0.0;

Shading:Building:Detailed,
House4_10,
,
4,
-21.200000000000003,
0.0,
0.0,
-21.2,
0.0,
5.1,
-21.2,
5.2,
5.1,
-21.2,
5.2,
0.0;

Shading:Building:Detailed,
House5_0,
,
4,
28.200000000000003,
0.0,
0.0,
28.2,
0.0,
5.1,
26.2,
0.0,
5.1,
26.2,
0.0,
0.0;

Shading:Building:Detailed,
House5_1,
,
4,
28.200000000000003,
7.6,
0.0,
28.2,
7.6,
5.1,
31.8,
7.6,
5.1,
31.8,
7.6,
0.0;

Shading:Building:Detailed,
House5_2,
,
4,
31.800000000000004,
7.6,
0.0,
31.8,
7.6,
5.1,
31.8,
3.8,
5.1,
31.8,
3.8,
0.0;

Shading:Building:Detailed,
House5_3,
,
4,
31.800000000000004,
3.8,
0.0,
31.8,
3.8,
5.1,
31.8,
0.0,
5.1,
31.8,
0.0,
0.0;

Shading:Building:Detailed,
House5_4,
,
4,
31.800000000000004,
0.0,
0.0,
31.8,
0.0,
5.1,
28.2,
0.0,
5.1,
28.2,
0.0,
0.0;

Shading:Building:Detailed,
House5_5,
,
4,
26.200000000000003,
0.0,
0.0,
26.2,
0.0,
5.1,
25.2,
0.0,
5.1,
25.2,
0.0,
0.0;

Shading:Building:Detailed,
House5_6,
,
4,
25.200000000000003,
7.6,
0.0,
25.2,
7.6,
5.1,
28.2,
7.6,
5.1,
28.2,
7.6,
0.0;

Shading:Building:Detailed,
House5_7,
,
4,
25.200000000000003,
5.199999999999999,
0.0,
25.2,
5.2,
5.1,
25.2,
7.6,
5.1,
25.2,
7.6,
0.0;

Shading:Building:Detailed,
House5_8,
,
4,
21.200000000000003,
5.2,
0.0,
21.2,
5.2,
5.1,
25.2,
5.2,
5.1,
25.2,
5.2,
0.0;

Shading:Building:Detailed,
House5_9,
,
4,
25.200000000000003,
0.0,
0.0,
25.2,
0.0,
5.1,
21.2,
0.0,
5.1,
21.2,
0.0,
0.0;

Shading:Building:Detailed,
House5_10,
,
4,
21.200000000000003,
0.0,
0.0,
21.2,
0.0,
5.1,
21.2,
5.2,
5.1,
21.2,
5.2,
0.0;

Shading:Building:Detailed,
House3_0,
,
4,
28.200000000000003,
15.2,
0.0,
28.2,
15.2,
5.1,
26.2,
15.2,
5.1,
26.2,
15.2,
0.0;

Shading:Building:Detailed,
House3_1,
,
4,
28.200000000000003,
22.799999999999997,
0.0,
28.2,
22.8,
5.1,
31.8,
22.8,
5.1,
31.8,
22.8,
0.0;

Shading:Building:Detailed,
House3_2,
,
4,
31.800000000000004,
22.799999999999997,
0.0,
31.8,
22.8,
5.1,
31.8,
19.0,
5.1,
31.8,
19.0,
0.0;

Shading:Building:Detailed,
House3_3,
,
4,
31.800000000000004,
19.0,
0.0,
31.8,
19.0,
5.1,
31.8,
15.2,
5.1,
31.8,
15.2,
0.0;

Shading:Building:Detailed,
House3_4,
,
4,
31.800000000000004,
15.2,
0.0,
31.8,
15.2,
5.1,
28.2,
15.2,
5.1,
28.2,
15.2,
0.0;

Shading:Building:Detailed,
House3_5,
,
4,
26.200000000000003,
15.2,
0.0,
26.2,
15.2,
5.1,
25.2,
15.2,
5.1,
25.2,
15.2,
0.0;

Shading:Building:Detailed,
House3_6,
,
4,
25.200000000000003,
22.799999999999997,
0.0,
25.2,
22.8,
5.1,
28.2,
22.8,
5.1,
28.2,
22.8,
0.0;

Shading:Building:Detailed,
House3_7,
,
4,
25.200000000000003,
20.4,
0.0,
25.2,
20.4,
5.1,
25.2,
22.8,
5.1,
25.2,
22.8,
0.0;

Shading:Building:Detailed,
House3_8,
,
4,
21.200000000000003,
20.4,
0.0,
21.2,
20.4,
5.1,
25.2,
20.4,
5.1,
25.2,
20.4,
0.0;

Shading:Building:Detailed,
House3_9,
,
4,
25.200000000000003,
15.2,
0.0,
25.2,
15.2,
5.1,
21.2,
15.2,
5.1,
21.2,
15.2,
0.0;

Shading:Building:Detailed,
House3_10,
,
4,
21.200000000000003,
15.2,
0.0,
21.2,
15.2,
5.1,
21.2,
20.4,
5.1,
21.2,
20.4,
0.0;

Shading:Building:Detailed,
House7_0,
,
4,
7.0,
-15.2,
0.0,
7.0,
-15.2,
5.1,
5.0,
-15.2,
5.1,
5.0,
-15.2,
0.0;

Shading:Building:Detailed,
House7_1,
,
4,
7.0,
-7.6,
0.0,
7.0,
-7.6,
5.1,
10.6,
-7.6,
5.1,
10.6,
-7.6,
0.0;

Shading:Building:Detailed,
House7_2,
,
4,
10.6,
-7.6,
0.0,
10.6,
-7.6,
5.1,
10.6,
-11.4,
5.1,
10.6,
-11.4,
0.0;

Shading:Building:Detailed,
House7_3,
,
4,
10.6,
-11.399999999999999,
0.0,
10.6,
-11.4,
5.1,
10.6,
-15.2,
5.1,
10.6,
-15.2,
0.0;

Shading:Building:Detailed,
House7_4,
,
4,
10.6,
-15.2,
0.0,
10.6,
-15.2,
5.1,
7.0,
-15.2,
5.1,
7.0,
-15.2,
0.0;

Shading:Building:Detailed,
House7_5,
,
4,
5.0,
-15.2,
0.0,
5.0,
-15.2,
5.1,
4.0,
-15.2,
5.1,
4.0,
-15.2,
0.0;

Shading:Building:Detailed,
House7_6,
,
4,
4.0,
-7.6,
0.0,
4.0,
-7.6,
5.1,
7.0,
-7.6,
5.1,
7.0,
-7.6,
0.0;

Shading:Building:Detailed,
House7_7,
,
4,
4.0,
-10.0,
0.0,
4.0,
-10.0,
5.1,
4.0,
-7.6,
5.1,
4.0,
-7.6,
0.0;

Shading:Building:Detailed,
House7_8,
,
4,
0.0,
-10.0,
0.0,
0.0,
-10.0,
5.1,
4.0,
-10.0,
5.1,
4.0,
-10.0,
0.0;

Shading:Building:Detailed,
House7_9,
,
4,
4.0,
-15.2,
0.0,
4.0,
-15.2,
5.1,
0.0,
-15.2,
5.1,
0.0,
-15.2,
0.0;

Shading:Building:Detailed,
House7_10,
,
4,
0.0,
-15.2,
0.0,
0.0,
-15.2,
5.1,
0.0,
-10.0,
5.1,
0.0,
-10.0,
0.0;

Zone,
Bedroom1,
0.0,
0.0,
0.0,
0.0;

AirflowNetwork:MultiZone:Zone,
Bedroom1,
Constant,
,
1.0,
0.0,
100.0,
0.0,
300000.0;

ZoneContaminantSourceAndSink:Generic:DepositionRateSink,
Gas_PM25_test_Bedroom1_DepRate_,
Bedroom1,
5e-05,
Gas_PM25_test_Bedroom1_DepRate_;

BuildingSurface:Detailed,
Bedroom1_Floor,
Floor,
Suspended_Wooden_Floor,
Bedroom1,
Surface,
Living_Ceiling,
NoSun,
NoWind,
autocalculate,
autocalculate,
0.0,
3.6,
2.4,
4.0,
3.6,
2.4,
4.0,
0.0,
2.4,
0.0,
0.0,
2.4;

AirflowNetwork:MultiZone:Surface,
Bedroom1_Floor,
Bedroom1_Floor_Crack,
,
1.0,
Constant,
,
1.0,
0.0,
100.0,
0.0,
300000.0;

AirflowNetwork:MultiZone:Surface:Crack,
Bedroom1_Floor_Crack,
0.0003642220843417466,
0.66,
RCC1;

BuildingSurface:Detailed,
Bedroom1_L1,
Wall,
Single_Brick_Internal_Wall,
Bedroom1,
Surface,
Ensuite_L3,
NoSun,
NoWind,
autocalculate,
autocalculate,
0.0,
3.6,
4.8,
4.0,
3.6,
4.8,
4.0,
3.6,
2.4,
0.0,
3.6,
2.4;

SurfaceProperty:ConvectionCoefficients,
Bedroom1_L1,
Inside,
Value,
8.29,
,
,
Outside,
Value,
8.29;

SurfaceProperties:VaporCoefficients,
Bedroom1_L1,
Yes,
2e-08,
Yes,
2e-08;

AirflowNetwork:MultiZone:Surface,
Bedroom1_L1,
Bedroom1_L1_Crack,
,
1.0,
Constant,
,
1.0,
0.0,
100.0,
0.0,
300000.0;

AirflowNetwork:MultiZone:Surface:Crack,
Bedroom1_L1_Crack,
0.00024281472289449773,
0.66,
RCC1;

FenestrationSurface:Detailed,
Bedroom1_door_Ensuite,
Door,
Wooden_Door,
Bedroom1_L1,
Ensuite_door_Bedroom1,
,
,
,
,
autocalculate,
1.6,
3.6,
4.4,
2.4,
3.6,
4.4,
2.4,
3.6,
2.4,
1.6,
3.6,
2.4;

AirflowNetwork:MultiZone:Surface,
Bedroom1_door_Ensuite,
Bedroom1_door_Ensuite_Opening,
,
1.0,
Constant,
,
1.0,
0.0,
100.0,
0.0,
300000.0,
Doors_AWESOME_Bedroom1_Door_Ensuite;

AirflowNetwork:MultiZone:Component:DetailedOpening,
Bedroom1_door_Ensuite_Opening,
0.009,
0.5,
NonPivoted,
0.0,
2,
0.0,
0.001,
0.0,
0.0,
0.0,
1.0,
0.78,
1.0,
1.0,
0.0;

BuildingSurface:Detailed,
Bedroom1_L2,
Wall,
Single_Brick_Internal_Wall,
Bedroom1,
Surface,
Staircase_L4,
NoSun,
NoWind,
autocalculate,
autocalculate,
4.0,
3.6,
4.8,
4.0,
0.0,
4.8,
4.0,
0.0,
2.4,
4.0,
3.6,
2.4;

SurfaceProperty:ConvectionCoefficients,
Bedroom1_L2,
Inside,
Value,
8.29,
,
,
Outside,
Value,
8.29;

SurfaceProperties:VaporCoefficients,
Bedroom1_L2,
Yes,
2e-08,
Yes,
2e-08;

AirflowNetwork:MultiZone:Surface,
Bedroom1_L2,
Bedroom1_L2_Crack,
,
1.0,
Constant,
,
1.0,
0.0,
100.0,
0.0,
300000.0;

AirflowNetwork:MultiZone:Surface:Crack,
Bedroom1_L2_Crack,
0.00021853325060504797,
0.66,
RCC1;

FenestrationSurface:Detailed,
Bedroom1_door_Staircase,
Door,
Wooden_Door,
Bedroom1_L2,
Staircase_door_Bedroom1,
,
,
,
,
autocalculate,
4.0,
2.2,
4.4,
4.0,
1.4,
4.4,
4.0,
1.4,
2.4,
4.0,
2.2,
2.4;

BuildingSurface:Detailed,
Bedroom1_L3,
Wall,
SOLID_BRICK_RandomU,
Bedroom1,
Outdoors,
,
SunExposed,
WindExposed,
autocalculate,
autocalculate,
4.0,
0.0,
4.7,
0.0,
0.0,
4.7,
0.0,
0.0,
2.5,
4.0,
0.0,
2.5;

SurfaceProperty:ConvectionCoefficients,
Bedroom1_L3,
Inside,
Value,
8.29,
,
,
Outside,
Value,
29.3;

SurfaceProperties:VaporCoefficients,
Bedroom1_L3,
Yes,
6.25e-08,
Yes,
2e-08;

FenestrationSurface:Detailed,
Bedroom1_L3_window,
Window,
Window_RandomU,
Bedroom1_L3,
,
autocalculate,
Bedroom1_L3_window_Shader,
,
,
autocalculate,
3.0,
0.0,
4.15,
1.0,
0.0,
4.15,
1.0,
0.0,
3.05,
3.0,
0.0,
3.05;

WindowProperty:ShadingControl,
Bedroom1_L3_window_Shader,
InteriorShade,
Curtains,
OnIfScheduleAllows,
Window_shading_Bedroom1_Window_Shading_,
,
Yes,
No,
,
FixedSlatAngle,
 ;

AirflowNetwork:MultiZone:Surface,
Bedroom1_L3_window,
Bedroom1_L3_window_Opening,
Bedroom1_L3_window_extN,
1.0,
Temperature,
Window_temperatureX_Bedroom1_Window_Temperature_,
1.0,
0.0,
100.0,
0.0,
300000.0,
Window_opening_family_Bedroom1_Window_;

AirflowNetwork:MultiZone:ExternalNode,
Bedroom1_L3_window_extN,
3.6000000000000005,
L3;

AirflowNetwork:MultiZone:Component:DetailedOpening,
Bedroom1_L3_window_Opening,
1e-08,
0.66,
HorizontallyPivoted,
0.0,
2,
0.0,
0.6,
0.0,
0.0,
0.0,
1.0,
0.5,
1.0,
0.33333,
0.66666;

BuildingSurface:Detailed,
Bedroom1_L4,
Wall,
SOLID_BRICK_RandomU,
Bedroom1,
Outdoors,
,
SunExposed,
WindExposed,
autocalculate,
autocalculate,
0.0,
0.0,
4.7,
0.0,
3.6,
4.7,
0.0,
3.6,
2.5,
0.0,
0.0,
2.5;

SurfaceProperty:ConvectionCoefficients,
Bedroom1_L4,
Inside,
Value,
8.29,
,
,
Outside,
Value,
29.3;

SurfaceProperties:VaporCoefficients,
Bedroom1_L4,
Yes,
6.25e-08,
Yes,
2e-08;

FenestrationSurface:Detailed,
Bedroom1_L4_window,
Window,
Window_RandomU,
Bedroom1_L4,
,
autocalculate,
Bedroom1_L4_window_Shader,
,
,
autocalculate,
0.0,
0.9,
4.15,
0.0,
2.7,
4.15,
0.0,
2.7,
3.05,
0.0,
0.9,
3.05;

WindowProperty:ShadingControl,
Bedroom1_L4_window_Shader,
InteriorShade,
Curtains,
OnIfScheduleAllows,
Window_shading_Bedroom1_Window_Shading_,
,
Yes,
No,
,
FixedSlatAngle,
 ;

AirflowNetwork:MultiZone:Surface,
Bedroom1_L4_window,
Bedroom1_L4_window_Opening,
Bedroom1_L4_window_extN,
1.0,
Temperature,
Window_temperatureX_Bedroom1_Window_Temperature_,
1.0,
0.0,
100.0,
0.0,
300000.0,
Window_opening_family_Bedroom1_Window_;

AirflowNetwork:MultiZone:ExternalNode,
Bedroom1_L4_window_extN,
3.6000000000000005,
L4;

AirflowNetwork:MultiZone:Component:DetailedOpening,
Bedroom1_L4_window_Opening,
1e-08,
0.66,
HorizontallyPivoted,
0.0,
2,
0.0,
0.6,
0.0,
0.0,
0.0,
1.0,
0.5,
1.0,
0.33333,
0.66666;

BuildingSurface:Detailed,
Bedroom1_Ceiling,
Ceiling,
LoftCeiling_RandomU,
Bedroom1,
Surface,
Loft_Floor_q1,
NoSun,
NoWind,
autocalculate,
autocalculate,
0.0,
2.5,
4.8,
0.0,
0.0,
4.8,
4.0,
0.0,
4.8,
4.0,
2.5,
4.8;

SurfaceProperty:ConvectionCoefficients,
Bedroom1_Ceiling,
Inside,
Value,
8.29,
,
,
Outside,
Value,
8.29;

AirflowNetwork:MultiZone:Surface,
Bedroom1_Ceiling,
Bedroom1_Ceiling_Crack,
,
1.0,
Constant,
,
1.0,
0.0,
100.0,
0.0,
300000.0;

AirflowNetwork:MultiZone:Surface:Crack,
Bedroom1_Ceiling_Crack,
0.0002529320030151018,
0.66,
RCC1;

BuildingSurface:Detailed,
Bedroom1_Ceiling_qc010,
Ceiling,
LoftCeiling_RandomU,
Bedroom1,
Surface,
Loft_Floor_qa010,
NoSun,
NoWind,
autocalculate,
autocalculate,
0.0,
3.6,
4.8,
0.0,
2.5,
4.8,
4.0,
2.5,
4.8,
4.0,
3.6,
4.8;

SurfaceProperty:ConvectionCoefficients,
Bedroom1_Ceiling_qc010,
Inside,
Value,
8.29,
,
,
Outside,
Value,
8.29;

AirflowNetwork:MultiZone:Surface,
Bedroom1_Ceiling_qc010,
Bedroom1_Ceiling_qc010_Crack,
,
1.0,
Constant,
,
1.0,
0.0,
100.0,
0.0,
300000.0;

AirflowNetwork:MultiZone:Surface:Crack,
Bedroom1_Ceiling_qc010_Crack,
0.0001112900813266448,
0.66,
RCC1;

BuildingSurface:Detailed,
Bedroom1_L3_pu,
Wall,
SOLID_BRICK_RandomU,
Bedroom1,
Outdoors,
,
SunExposed,
WindExposed,
autocalculate,
autocalculate,
4.0,
0.0,
4.8,
0.0,
0.0,
4.8,
0.0,
0.0,
4.7,
4.0,
0.0,
4.7;

SurfaceProperty:ConvectionCoefficients,
Bedroom1_L3_pu,
Inside,
Value,
8.29,
,
,
Outside,
Value,
29.3;

SurfaceProperties:VaporCoefficients,
Bedroom1_L3_pu,
Yes,
6.25e-08,
Yes,
2e-08;

AirflowNetwork:MultiZone:Surface,
Bedroom1_L3_pu,
Bedroom1_L3_pu_Crack,
Bedroom1_L3_pu_extN,
1.0,
Constant,
,
1.0,
0.0,
100.0,
0.0,
300000.0;

AirflowNetwork:MultiZone:Surface:Crack,
Bedroom1_L3_pu_Crack,
0.00011129008132664479,
0.66,
RCC1;

AirflowNetwork:MultiZone:ExternalNode,
Bedroom1_L3_pu_extN,
4.75,
L3;

BuildingSurface:Detailed,
Bedroom1_L3_pd,
Wall,
SOLID_BRICK_RandomU,
Bedroom1,
Outdoors,
,
SunExposed,
WindExposed,
autocalculate,
autocalculate,
4.0,
0.0,
2.5,
0.0,
0.0,
2.5,
0.0,
0.0,
2.4,
4.0,
0.0,
2.4;

SurfaceProperty:ConvectionCoefficients,
Bedroom1_L3_pd,
Inside,
Value,
8.29,
,
,
Outside,
Value,
29.3;

SurfaceProperties:VaporCoefficients,
Bedroom1_L3_pd,
Yes,
6.25e-08,
Yes,
2e-08;

AirflowNetwork:MultiZone:Surface,
Bedroom1_L3_pd,
Bedroom1_L3_pd_Crack,
Bedroom1_L3_pd_extN,
1.0,
Constant,
,
1.0,
0.0,
100.0,
0.0,
300000.0;

AirflowNetwork:MultiZone:Surface:Crack,
Bedroom1_L3_pd_Crack,
0.00011129008132664479,
0.66,
RCC1;

AirflowNetwork:MultiZone:ExternalNode,
Bedroom1_L3_pd_extN,
2.45,
L3;

BuildingSurface:Detailed,
Bedroom1_L4_pu,
Wall,
SOLID_BRICK_RandomU,
Bedroom1,
Outdoors,
,
SunExposed,
WindExposed,
autocalculate,
autocalculate,
0.0,
0.0,
4.8,
0.0,
3.6,
4.8,
0.0,
3.6,
4.7,
0.0,
0.0,
4.7;

SurfaceProperty:ConvectionCoefficients,
Bedroom1_L4_pu,
Inside,
Value,
8.29,
,
,
Outside,
Value,
29.3;

SurfaceProperties:VaporCoefficients,
Bedroom1_L4_pu,
Yes,
6.25e-08,
Yes,
2e-08;

AirflowNetwork:MultiZone:Surface,
Bedroom1_L4_pu,
Bedroom1_L4_pu_Crack,
Bedroom1_L4_pu_extN,
1.0,
Constant,
,
1.0,
0.0,
100.0,
0.0,
300000.0;

AirflowNetwork:MultiZone:Surface:Crack,
Bedroom1_L4_pu_Crack,
0.0001001610731939803,
0.66,
RCC1;

AirflowNetwork:MultiZone:ExternalNode,
Bedroom1_L4_pu_extN,
4.75,
L4;

BuildingSurface:Detailed,
Bedroom1_L4_pd,
Wall,
SOLID_BRICK_RandomU,
Bedroom1,
Outdoors,
,
SunExposed,
WindExposed,
autocalculate,
autocalculate,
0.0,
0.0,
2.5,
0.0,
3.6,
2.5,
0.0,
3.6,
2.4,
0.0,
0.0,
2.4;

SurfaceProperty:ConvectionCoefficients,
Bedroom1_L4_pd,
Inside,
Value,
8.29,
,
,
Outside,
Value,
29.3;

SurfaceProperties:VaporCoefficients,
Bedroom1_L4_pd,
Yes,
6.25e-08,
Yes,
2e-08;

AirflowNetwork:MultiZone:Surface,
Bedroom1_L4_pd,
Bedroom1_L4_pd_Crack,
Bedroom1_L4_pd_extN,
1.0,
Constant,
,
1.0,
0.0,
100.0,
0.0,
300000.0;

AirflowNetwork:MultiZone:Surface:Crack,
Bedroom1_L4_pd_Crack,
0.0001001610731939803,
0.66,
RCC1;

AirflowNetwork:MultiZone:ExternalNode,
Bedroom1_L4_pd_extN,
2.45,
L4;

People,
Child3_Bedroom4,
Bedroom4,
Child3_Bedroom4_Presence_,
People,
1,
,
,
0.66,
autocalculate,
Child3_Bedroom4_Metabolism_,
3.82e-08,
No,
ZoneAveraged;

People,
Child2_Bedroom3,
Bedroom3,
Child2_Bedroom3_Presence_,
People,
1,
,
,
0.66,
autocalculate,
Child2_Bedroom3_Metabolism_,
3.82e-08,
No,
ZoneAveraged;

People,
Child1_Bedroom2,
Bedroom2,
Child1_Bedroom2_Presence_,
People,
1,
,
,
0.66,
autocalculate,
Child1_Bedroom2_Metabolism_,
3.82e-08,
No,
ZoneAveraged;

People,
WorkingAdult2_Bedroom1,
Bedroom1,
WorkingAdult2_Bedroom1_Presence_,
People,
1,
,
,
0.66,
autocalculate,
WorkingAdult2_Bedroom1_Metabolism_,
3.82e-08,
No,
ZoneAveraged;

People,
WorkingAdult1_Bedroom1,
Bedroom1,
WorkingAdult1_Bedroom1_Presence_,
People,
1,
,
,
0.66,
autocalculate,
WorkingAdult1_Bedroom1_Metabolism_,
3.82e-08,
No,
ZoneAveraged;

ElectricEquipment,
Bedroom1_WorkingAdult1_Bedroom1_Appliance_NIST_MOBILEPHONES_NIST_MOBILEPHONES,
Bedroom1,
WorkingAdult1_Bedroom1_Appliance_NIST_MOBILEPHONES,
EquipmentLevel,
17.72,
,
,
0.16,
0.367,
0.10600000000000001;

Lights,
Bedroom1_WorkingAdult1_Bedroom1_Appliance_Lights_Lights,
Bedroom1,
WorkingAdult1_Bedroom1_Appliance_Lights,
LightingLevel,
100.0,
,
,
0,
0,
0,
1;

ElectricEquipment,
Bedroom1_WorkingAdult2_Bedroom1_Appliance_NIST_MOBILEPHONES_NIST_MOBILEPHONES,
Bedroom1,
WorkingAdult2_Bedroom1_Appliance_NIST_MOBILEPHONES,
EquipmentLevel,
17.72,
,
,
0.16,
0.367,
0.10600000000000001;

ZoneControl:Thermostat,
Bedroom1_Thermostat,
Bedroom1,
Heat_CIBSE_Family_Bedroom1_Heating_,
ThermostatSetpoint:SingleHeating,
Bedroom1_stat;

ThermostatSetpoint:SingleHeating,
Bedroom1_stat,
ComfX_Bedroom1_Comfort_;

ZoneHVAC:Baseboard:Convective:Electric,
Bedroom1_heater,
Heat_CIBSE_Family_Bedroom1_Heating_,
228.19858366226805,
1.0;

ZoneHVAC:EquipmentList,
Bedroom1_equiplist,
ZoneHVAC:Baseboard:Convective:Electric,
Bedroom1_heater,
1,
1;

ZoneHVAC:EquipmentConnections,
Bedroom1,
Bedroom1_equiplist,
,
,
Bedroom1_Air,
Bedroom1_Outlet;

Zone,
Hall,
0.0,
0.0,
0.0,
0.0;

AirflowNetwork:MultiZone:Zone,
Hall,
Constant,
,
1.0,
0.0,
100.0,
0.0,
300000.0;

ZoneContaminantSourceAndSink:Generic:DepositionRateSink,
Gas_PM25_test_Hall_DepRate_,
Hall,
5e-05,
Gas_PM25_test_Hall_DepRate_;

BuildingSurface:Detailed,
Hall_Floor,
Floor,
Suspended_Wooden_Floor,
Hall,
Surface,
Cellar_Ceiling_qa010,
NoSun,
NoWind,
autocalculate,
autocalculate,
5.0,
3.8,
0.0,
7.0,
3.8,
0.0,
7.0,
0.0,
0.0,
5.0,
0.0,
0.0;

BuildingSurface:Detailed,
Hall_L2,
Wall,
Single_Brick_Internal_Wall,
Hall,
Surface,
Dining_L4,
NoSun,
NoWind,
autocalculate,
autocalculate,
7.0,
3.8,
2.4,
7.0,
0.0,
2.4,
7.0,
0.0,
0.0,
7.0,
3.8,
0.0;

SurfaceProperty:ConvectionCoefficients,
Hall_L2,
Inside,
Value,
8.29,
,
,
Outside,
Value,
8.29;

SurfaceProperties:VaporCoefficients,
Hall_L2,
Yes,
2e-08,
Yes,
2e-08;

FenestrationSurface:Detailed,
Hall_door_Dining,
Door,
Wooden_Door,
Hall_L2,
Dining_door_Hall,
,
,
,
,
autocalculate,
7.0,
2.3,
2.0,
7.0,
1.5,
2.0,
7.0,
1.5,
0.0,
7.0,
2.3,
0.0;

BuildingSurface:Detailed,
Hall_L3,
Wall,
SOLID_BRICK_RandomU,
Hall,
Outdoors,
,
SunExposed,
WindExposed,
autocalculate,
autocalculate,
7.0,
0.0,
2.3,
5.0,
0.0,
2.3,
5.0,
0.0,
0.1,
7.0,
0.0,
0.1;

SurfaceProperty:ConvectionCoefficients,
Hall_L3,
Inside,
Value,
8.29,
,
,
Outside,
Value,
29.3;

SurfaceProperties:VaporCoefficients,
Hall_L3,
Yes,
6.25e-08,
Yes,
2e-08;

BuildingSurface:Detailed,
Hall_L4,
Wall,
Single_Brick_Internal_Wall,
Hall,
Surface,
Staircase_L2,
NoSun,
NoWind,
autocalculate,
autocalculate,
5.0,
0.0,
2.4,
5.0,
3.8,
2.4,
5.0,
3.8,
0.0,
5.0,
0.0,
0.0;

SurfaceProperty:ConvectionCoefficients,
Hall_L4,
Inside,
Value,
8.29,
,
,
Outside,
Value,
8.29;

SurfaceProperties:VaporCoefficients,
Hall_L4,
Yes,
2e-08,
Yes,
2e-08;

AirflowNetwork:MultiZone:Surface,
Hall_L4,
Hall_L4_Crack,
,
1.0,
Constant,
,
1.0,
0.0,
100.0,
0.0,
300000.0;

AirflowNetwork:MultiZone:Surface:Crack,
Hall_L4_Crack,
0.00023067398674977283,
0.66,
RCC1;

FenestrationSurface:Detailed,
Hall_door_Staircase,
Door,
Wooden_Door,
Hall_L4,
Staircase_door_Hall,
,
,
,
,
autocalculate,
5.0,
1.5,
2.0,
5.0,
2.3,
2.0,
5.0,
2.3,
0.0,
5.0,
1.5,
0.0;

BuildingSurface:Detailed,
Hall_Ceiling,
Ceiling,
Suspended_Wooden_Ceiling,
Hall,
Surface,
TopHall_Floor,
NoSun,
NoWind,
autocalculate,
autocalculate,
5.0,
3.8,
2.4,
5.0,
2.5,
2.4,
7.0,
2.5,
2.4,
7.0,
3.8,
2.4;

AirflowNetwork:MultiZone:Surface,
Hall_Ceiling,
Hall_Ceiling_Crack,
,
1.0,
Constant,
,
1.0,
0.0,
100.0,
0.0,
300000.0;

AirflowNetwork:MultiZone:Surface:Crack,
Hall_Ceiling_Crack,
6.576232078392647e-05,
0.66,
RCC1;

BuildingSurface:Detailed,
Hall_L1_qa001,
Wall,
Single_Brick_Internal_Wall,
Hall,
Surface,
Loo_L3_qc100,
NoSun,
NoWind,
autocalculate,
autocalculate,
5.0,
3.8,
2.4,
6.0,
3.8,
2.4,
6.0,
3.8,
0.0,
5.0,
3.8,
0.0;

SurfaceProperty:ConvectionCoefficients,
Hall_L1_qa001,
Inside,
Value,
8.29,
,
,
Outside,
Value,
8.29;

SurfaceProperties:VaporCoefficients,
Hall_L1_qa001,
Yes,
2e-08,
Yes,
2e-08;

AirflowNetwork:MultiZone:Surface,
Hall_L1_qa001,
Hall_L1_qa001_Crack,
,
1.0,
Constant,
,
1.0,
0.0,
100.0,
0.0,
300000.0;

AirflowNetwork:MultiZone:Surface:Crack,
Hall_L1_qa001_Crack,
6.070368072362443e-05,
0.66,
RCC1;

BuildingSurface:Detailed,
Hall_Ceiling_qa100,
Ceiling,
Suspended_Wooden_Ceiling,
Hall,
Surface,
TopHall+_Floor,
NoSun,
NoWind,
autocalculate,
autocalculate,
5.0,
2.5,
2.4,
5.0,
0.0,
2.4,
6.2,
0.0,
2.4,
6.2,
2.5,
2.4;

AirflowNetwork:MultiZone:Surface,
Hall_Ceiling_qa100,
Hall_Ceiling_qa100_Crack,
,
1.0,
Constant,
,
1.0,
0.0,
100.0,
0.0,
300000.0;

AirflowNetwork:MultiZone:Surface:Crack,
Hall_Ceiling_qa100_Crack,
7.587960090453056e-05,
0.66,