Version,
8.1.0.009;

SimulationControl,
No,
No,
No,
Yes,
Yes;

Building,
Semi,
0.0,
Urban,
0.04,
0.4,
FullExterior,
25,
6;

SurfaceConvectionAlgorithm:Inside,
TARP;

SurfaceConvectionAlgorithm:Outside,
TARP;

HeatBalanceAlgorithm,
ConductionTransferFunction,
200;

Timestep,
6;

RunPeriod,
,
1,
1,
12,
31,
Monday,
Yes,
Yes,
No,
Yes,
Yes,
1;

Site:GroundTemperature:BuildingSurface,
8.3,
6.4,
5.8,
6.3,
8.9,
11.7,
14.4,
16.4,
17,
16.1,
13.8,
11;

ScheduleTypeLimits,
Control,
0,
4,
Discrete,
Control;

ScheduleTypeLimits,
Thermal,
-20.0,
60.0,
Continuous,
Temperature;

ScheduleTypeLimits,
Fraction,
0.0,
10.0,
Continuous,
Dimensionless;

ScheduleTypeLimits,
Number,
0.0,
1000000000.0,
Continuous,
Dimensionless;

Material,
Spruce_0.0125,
Rough,
0.0125,
0.09,
455,
1500,
0.9,
0.7,
0.7;

Material,
AirGap_0.1,
Rough,
0.1,
0.02485,
1.204,
1004,
0.9,
0.7,
0.7;

Material,
Concrete_0.04,
Rough,
0.04,
1.6,
2300,
850,
0.9,
0.7,
0.7;

Material,
CelluloseInsExt_0.01,
Rough,
0.12000019800671927,
0.04,
55,
1880,
0.9,
0.7,
0.7;

Material,
Spruce_0.04,
Rough,
0.04,
0.09,
455,
1500,
0.9,
0.7,
0.7;

Material,
Brick_0.1,
Rough,
0.1,
0.6,
1712,
850,
0.9,
0.7,
0.7;

Material,
Spruce_0.05,
Rough,
0.05,
0.09,
455,
1500,
0.9,
0.7,
0.7;

Material,
Concrete_0.01,
Rough,
0.01,
1.6,
2300,
850,
0.9,
0.7,
0.7;

Material,
Gypsum_0.1,
Rough,
0.1,
0.2,
850,
850,
0.9,
0.6,
0.7;

Material,
GlassFiberFloor_0.0065,
Rough,
0.14931818181818185,
0.04,
80,
840,
0.9,
0.7,
0.7;

Material,
Concrete_0.5,
Rough,
0.5,
1.6,
2300,
850,
0.9,
0.7,
0.7;

Material,
Brick_0.11,
Rough,
0.11,
0.6,
1712,
850,
0.9,
0.7,
0.7;

Material,
AirGapRoof_0.0001,
Rough,
0.12721117925713712,
0.02485,
1.204,
1004,
0.9,
0.7,
0.7;

Material,
Gypsum_0.01,
Rough,
0.01,
0.2,
850,
850,
0.9,
0.6,
0.7;

WindowMaterial:Glazing,
Glass_0.01,
SpectralAverage,
,
0.01,
0.775,
0.071,
0.071,
0.881,
0.08,
0.08,
0.0,
0.84,
0.84,
0.9;

WindowMaterial:Gas,
GasWin_0.01,
Air,
0.011133317456118804;

WindowMaterial:Shade,
Drapes_0.004,
0.05,
0.3,
0.05,
0.3,
0.9,
0.0,
0.004,
0.1,
0.05,
1.0,
1.0,
0.0,
0.0,
0.0;

Construction,
LoftFloor_RandomU,
Concrete_0.01,
Spruce_0.0125,
AirGapRoof_0.0001,
Gypsum_0.01;

Construction,
Curtains,
Glass_0.01,
GasWin_0.01,
Glass_0.01,
Drapes_0.004;

Construction,
Single_Brick_Internal_Wall,
Gypsum_0.01,
Brick_0.1,
Gypsum_0.01;

Construction,
Wooden_Door,
Spruce_0.04;

Construction,
Suspended_Wooden_Floor,
Gypsum_0.01,
AirGap_0.1,
Spruce_0.05;

Construction,
3.10_Roof,
Concrete_0.04,
Gypsum_0.01;

Construction,
FILLED_CAVITY_RandomU,
Brick_0.11,
CelluloseInsExt_0.01,
Brick_0.11,
Gypsum_0.01;

Construction,
Window_RandomU,
Glass_0.01,
GasWin_0.01,
Glass_0.01;

Construction,
FLOOR_RandomU,
Concrete_0.5,
GlassFiberFloor_0.0065,
Gypsum_0.1;

Construction,
Suspended_Wooden_Ceiling,
Spruce_0.05,
AirGap_0.1,
Gypsum_0.01;

Construction,
LoftCeiling_RandomU,
Gypsum_0.01,
AirGapRoof_0.0001,
Spruce_0.0125,
Concrete_0.01;

AirflowNetwork:SimulationControl,
AF1,
MultiZoneWithoutDistribution,
Input,
WParray,
ExternalNode,
LowRise,
500,
ZeroNodePressures,
0.0001,
1.E-6,
-0.5,
0,
1;

AirflowNetwork:MultiZone:ReferenceCrackConditions,
RCC1,
20,
101325,
0;

AirflowNetwork:MultiZone:WindPressureCoefficientArray,
WParray,
0.0,
30.0,
60.0,
90.0,
120.0,
150.0,
180.0,
210.0,
240.0,
270.0,
300.0,
330.0,
360.0;

AirflowNetwork:MultiZone:WindPressureCoefficientValues,
L1,
WParray,
0.603,
0.48,
0.183,
-0.34,
-0.632,
-0.37,
-0.452,
-0.37,
-0.632,
-0.34,
0.183,
0.48,
0.603;

AirflowNetwork:MultiZone:WindPressureCoefficientValues,
Floor,
WParray,
0,
0,
0,
0,
0,
0,
0,
0,
0,
0,
0,
0,
0;

AirflowNetwork:MultiZone:WindPressureCoefficientValues,
L4,
WParray,
-0.34,
-0.632,
-0.37,
-0.452,
-0.37,
-0.632,
-0.34,
0.183,
0.48,
0.603,
0.603,
0.48,
0.183;

AirflowNetwork:MultiZone:WindPressureCoefficientValues,
L2,
WParray,
-0.34,
0.183,
0.48,
0.603,
0.603,
0.48,
0.183,
-0.34,
-0.632,
-0.37,
-0.452,
-0.37,
-0.632;

AirflowNetwork:MultiZone:WindPressureCoefficientValues,
Ceiling,
WParray,
0,
0,
0,
0,
0,
0,
0,
0,
0,
0,
0,
0,
0;

AirflowNetwork:MultiZone:WindPressureCoefficientValues,
L3,
WParray,
-0.452,
-0.37,
-0.632,
-0.34,
0.183,
0.48,
0.603,
0.48,
0.183,
-0.34,
-0.632,
-0.37,
-0.452;

ZoneAirContaminantBalance,
No,
,
Yes,
Gas_PM25_test_Outside_Contaminant_;

GlobalGeometryRules,
UpperLeftCorner,
CounterClockwise,
Relative;

Shading:Building:Detailed,
House1_0,
,
4,
12.600000000000001,
8.19,
0.0,
12.6,
8.19,
5.2,
10.0875,
8.19,
5.2,
10.0875,
8.19,
0.0;

Shading:Building:Detailed,
House1_1,
,
4,
10.087500000000002,
8.19,
0.0,
10.0875,
8.19,
5.2,
10.0875,
5.49,
5.2,
10.0875,
5.49,
0.0;

Shading:Building:Detailed,
House1_2,
,
4,
10.087500000000002,
5.49,
0.0,
10.0875,
5.49,
5.2,
12.6,
5.49,
5.2,
12.6,
5.49,
0.0;

Shading:Building:Detailed,
House1_3,
,
4,
12.600000000000001,
5.49,
0.0,
12.6,
5.49,
5.2,
12.6,
8.19,
5.2,
12.6,
8.19,
0.0;

Shading:Building:Detailed,
House1_4,
,
4,
12.600000000000001,
3.0,
0.0,
12.6,
3.0,
5.2,
10.0875,
3.0,
5.2,
10.0875,
3.0,
0.0;

Shading:Building:Detailed,
House1_5,
,
4,
10.087500000000002,
3.0,
0.0,
10.0875,
3.0,
5.2,
10.0875,
0.0,
5.2,
10.0875,
0.0,
0.0;

Shading:Building:Detailed,
House1_6,
,
4,
10.087500000000002,
0.0,
0.0,
10.0875,
0.0,
5.2,
12.6,
0.0,
5.2,
12.6,
0.0,
0.0;

Shading:Building:Detailed,
House1_7,
,
4,
12.600000000000001,
0.0,
0.0,
12.6,
0.0,
5.2,
12.6,
3.0,
5.2,
12.6,
3.0,
0.0;

Shading:Building:Detailed,
House1_8,
,
4,
10.087500000000002,
4.59,
0.0,
10.0875,
4.59,
5.2,
6.3,
4.59,
5.2,
6.3,
4.59,
0.0;

Shading:Building:Detailed,
House1_9,
,
4,
6.300000000000002,
4.59,
0.0,
6.3,
4.59,
5.2,
6.3,
0.0,
5.2,
6.3,
0.0,
0.0;

Shading:Building:Detailed,
House1_10,
,
4,
6.300000000000002,
0.0,
0.0,
6.3,
0.0,
5.2,
10.0875,
0.0,
5.2,
10.0875,
0.0,
0.0;

Shading:Building:Detailed,
House1_11,
,
4,
10.087500000000002,
0.0,
0.0,
10.0875,
0.0,
5.2,
10.0875,
4.59,
5.2,
10.0875,
4.59,
0.0;

Shading:Building:Detailed,
House1_12,
,
4,
10.087500000000002,
8.19,
0.0,
10.0875,
8.19,
5.2,
6.3,
8.19,
5.2,
6.3,
8.19,
0.0;

Shading:Building:Detailed,
House1_13,
,
4,
6.300000000000002,
8.19,
0.0,
6.3,
8.19,
5.2,
6.3,
5.49,
5.2,
6.3,
5.49,
0.0;

Shading:Building:Detailed,
House1_14,
,
4,
6.300000000000002,
5.49,
0.0,
6.3,
5.49,
5.2,
10.0875,
5.49,
5.2,
10.0875,
5.49,
0.0;

Shading:Building:Detailed,
House1_15,
,
4,
10.087500000000002,
5.49,
0.0,
10.0875,
5.49,
5.2,
10.0875,
8.19,
5.2,
10.0875,
8.19,
0.0;

Shading:Building:Detailed,
House1_16,
,
4,
12.600000000000001,
4.59,
0.0,
12.6,
4.59,
5.2,
11.525,
4.59,
5.2,
11.525,
4.59,
0.0;

Shading:Building:Detailed,
House1_17,
,
4,
11.525000000000002,
4.59,
0.0,
11.525,
4.59,
5.2,
11.525,
3.0,
5.2,
11.525,
3.0,
0.0;

Shading:Building:Detailed,
House1_18,
,
4,
11.525000000000002,
3.0,
0.0,
11.525,
3.0,
5.2,
12.6,
3.0,
5.2,
12.6,
3.0,
0.0;

Shading:Building:Detailed,
House1_19,
,
4,
12.600000000000001,
3.0,
0.0,
12.6,
3.0,
5.2,
12.6,
4.59,
5.2,
12.6,
4.59,
0.0;

Shading:Building:Detailed,
House1_20,
,
4,
10.087500000000002,
5.49,
0.0,
10.0875,
5.49,
5.2,
6.3,
5.49,
5.2,
6.3,
5.49,
0.0;

Shading:Building:Detailed,
House1_21,
,
4,
6.300000000000002,
5.49,
0.0,
6.3,
5.49,
5.2,
6.3,
4.59,
5.2,
6.3,
4.59,
0.0;

Shading:Building:Detailed,
House1_22,
,
4,
6.300000000000002,
4.59,
0.0,
6.3,
4.59,
5.2,
10.0875,
4.59,
5.2,
10.0875,
4.59,
0.0;

Shading:Building:Detailed,
House1_23,
,
4,
10.087500000000002,
4.59,
0.0,
10.0875,
4.59,
5.2,
10.0875,
5.49,
5.2,
10.0875,
5.49,
0.0;

Shading:Building:Detailed,
House1_24,
,
4,
11.525000000000002,
5.49,
0.0,
11.525,
5.49,
5.2,
10.0875,
5.49,
5.2,
10.0875,
5.49,
0.0;

Shading:Building:Detailed,
House1_25,
,
4,
10.087500000000002,
5.49,
0.0,
10.0875,
5.49,
5.2,
10.0875,
4.59,
5.2,
10.0875,
4.59,
0.0;

Shading:Building:Detailed,
House1_26,
,
4,
10.087500000000002,
4.59,
0.0,
10.0875,
4.59,
5.2,
11.525,
4.59,
5.2,
11.525,
4.59,
0.0;

Shading:Building:Detailed,
House1_27,
,
4,
11.525000000000002,
4.59,
0.0,
11.525,
4.59,
5.2,
11.525,
5.49,
5.2,
11.525,
5.49,
0.0;

Shading:Building:Detailed,
House1_28,
,
4,
12.600000000000001,
5.49,
0.0,
12.6,
5.49,
5.2,
11.525,
5.49,
5.2,
11.525,
5.49,
0.0;

Shading:Building:Detailed,
House1_29,
,
4,
11.525000000000002,
5.49,
0.0,
11.525,
5.49,
5.2,
11.525,
4.59,
5.2,
11.525,
4.59,
0.0;

Shading:Building:Detailed,
House1_30,
,
4,
11.525000000000002,
4.59,
0.0,
11.525,
4.59,
5.2,
12.6,
4.59,
5.2,
12.6,
4.59,
0.0;

Shading:Building:Detailed,
House1_31,
,
4,
12.600000000000001,
4.59,
0.0,
12.6,
4.59,
5.2,
12.6,
5.49,
5.2,
12.6,
5.49,
0.0;

Shading:Building:Detailed,
House1_32,
,
4,
11.525000000000002,
4.59,
0.0,
11.525,
4.59,
5.2,
10.0875,
4.59,
5.2,
10.0875,
4.59,
0.0;

Shading:Building:Detailed,
House1_33,
,
4,
10.087500000000002,
4.59,
0.0,
10.0875,
4.59,
5.2,
10.0875,
3.0,
5.2,
10.0875,
3.0,
0.0;

Shading:Building:Detailed,
House1_34,
,
4,
10.087500000000002,
3.0,
0.0,
10.0875,
3.0,
5.2,
11.525,
3.0,
5.2,
11.525,
3.0,
0.0;

Shading:Building:Detailed,
House1_35,
,
4,
11.525000000000002,
3.0,
0.0,
11.525,
3.0,
5.2,
11.525,
4.59,
5.2,
11.525,
4.59,
0.0;

Shading:Building:Detailed,
House1_RoofShade_0,
,
4,
12.600000000000001,
4.095,
7.2,
6.300000000000001,
4.095,
7.2,
6.300000000000001,
8.19,
5.2,
12.600000000000001,
8.19,
5.2;

Shading:Building:Detailed,
House1_RoofShade_1,
,
4,
6.300000000000001,
4.095000000000001,
7.2,
12.600000000000001,
4.095,
7.2,
12.600000000000001,
0.0,
5.2,
6.300000000000001,
0.0,
5.2;

Shading:Building:Detailed,
House1_RoofShade_2,
,
3,
12.600000000000001,
4.095000000000001,
7.2,
12.600000000000001,
8.19,
5.2,
12.600000000000001,
0.0,
5.2;

Zone,
TopHall,
0.0,
0.0,
0.0,
0.0;

AirflowNetwork:MultiZone:Zone,
TopHall,
Constant,
,
1.0,
0.0,
100.0,
0.0,
300000.0;

ZoneContaminantSourceAndSink:Generic:DepositionRateSink,
Gas_PM25_test_TopHall_DepRate_,
TopHall,
5e-05,
Gas_PM25_test_TopHall_DepRate_;

BuildingSurface:Detailed,
TopHall_Floor,
Floor,
Suspended_Wooden_Floor,
TopHall,
Surface,
Hall+_Ceiling,
NoSun,
NoWind,
autocalculate,
autocalculate,
1.075,
4.59,
2.6,
1.9,
4.59,
2.6,
1.9,
3.0,
2.6,
1.075,
3.0,
2.6;

BuildingSurface:Detailed,
TopHall_L2,
Wall,
Single_Brick_Internal_Wall,
TopHall,
Surface,
Bedroom1_L4_qc010,
NoSun,
NoWind,
autocalculate,
autocalculate,
2.5125,
4.59,
5.2,
2.5125,
3.0,
5.2,
2.5125,
3.0,
2.6,
2.5125,
4.59,
2.6;

SurfaceProperty:ConvectionCoefficients,
TopHall_L2,
Inside,
Value,
8.29,
,
,
Outside,
Value,
8.29;

SurfaceProperties:VaporCoefficients,
TopHall_L2,
Yes,
2e-08,
Yes,
2e-08;

FenestrationSurface:Detailed,
TopHall_door_Bedroom1,
Door,
Wooden_Door,
TopHall_L2,
Bedroom1_door_TopHall,
,
,
,
,
autocalculate,
2.5125,
4.195,
4.6,
2.5125,
3.395,
4.6,
2.5125,
3.395,
2.6,
2.5125,
4.195,
2.6;

BuildingSurface:Detailed,
TopHall_L3,
Wall,
Single_Brick_Internal_Wall,
TopHall,
Surface,
Bedroom3_L1_qc100,
NoSun,
NoWind,
autocalculate,
autocalculate,
2.5125,
3.0,
5.2,
1.075,
3.0,
5.2,
1.075,
3.0,
2.6,
2.5125,
3.0,
2.6;

SurfaceProperty:ConvectionCoefficients,
TopHall_L3,
Inside,
Value,
8.29,
,
,
Outside,
Value,
8.29;

SurfaceProperties:VaporCoefficients,
TopHall_L3,
Yes,
2e-08,
Yes,
2e-08;

FenestrationSurface:Detailed,
TopHall_door_Bedroom3,
Door,
Wooden_Door,
TopHall_L3,
Bedroom3_door_TopHall,
,
,
,
,
autocalculate,
2.19375,
3.0,
4.6,
1.3938,
3.0,
4.6,
1.3938,
3.0,
2.6,
2.1938,
3.0,
2.6;

BuildingSurface:Detailed,
TopHall_L4,
Wall,
Single_Brick_Internal_Wall,
TopHall,
Surface,
Staircase_L2_qc001,
NoSun,
NoWind,
autocalculate,
autocalculate,
1.075,
3.0,
5.2,
1.075,
4.59,
5.2,
1.075,
4.59,
2.6,
1.075,
3.0,
2.6;

SurfaceProperty:ConvectionCoefficients,
TopHall_L4,
Inside,
Value,
8.29,
,
,
Outside,
Value,
8.29;

SurfaceProperties:VaporCoefficients,
TopHall_L4,
Yes,
2e-08,
Yes,
2e-08;

BuildingSurface:Detailed,
TopHall_Ceiling,
Ceiling,
LoftCeiling_RandomU,
TopHall,
Surface,
Attic_Floor_qa100_qc010_qc100,
NoSun,
NoWind,
autocalculate,
autocalculate,
1.075,
4.59,
5.2,
1.075,
3.0,
5.2,
2.5125,
3.0,
5.2,
2.5125,
4.59,
5.2;

SurfaceProperty:ConvectionCoefficients,
TopHall_Ceiling,
Inside,
Value,
8.29,
,
,
Outside,
Value,
8.29;

BuildingSurface:Detailed,
TopHall_Floor_qc100,
Floor,
Suspended_Wooden_Floor,
TopHall,
Surface,
Hall++_Ceiling,
NoSun,
NoWind,
autocalculate,
autocalculate,
1.9,
4.59,
2.6,
2.5125,
4.59,
2.6,
2.5125,
3.4,
2.6,
1.9,
3.4,
2.6;

BuildingSurface:Detailed,
TopHall_Floor_qc100_qa100,
Floor,
Suspended_Wooden_Floor,
TopHall,
Surface,
Living_Ceiling,
NoSun,
NoWind,
autocalculate,
autocalculate,
1.9,
3.4,
2.6,
2.5125,
3.4,
2.6,
2.5125,
3.0,
2.6,
1.9,
3.0,
2.6;

BuildingSurface:Detailed,
TopHall+_Floor,
Floor,
Suspended_Wooden_Floor,
TopHall,
Surface,
Kitchen_Ceiling_qa100,
NoSun,
NoWind,
autocalculate,
autocalculate,
0.0,
5.49,
2.6,
2.5125,
5.49,
2.6,
2.5125,
4.59,
2.6,
0.0,
4.59,
2.6;

BuildingSurface:Detailed,
TopHall+_L1,
Wall,
Single_Brick_Internal_Wall,
TopHall,
Surface,
Bath1_L3,
NoSun,
NoWind,
autocalculate,
autocalculate,
0.0,
5.49,
5.2,
2.5125,
5.49,
5.2,
2.5125,
5.49,
2.6,
0.0,
5.49,
2.6;

SurfaceProperty:ConvectionCoefficients,
TopHall+_L1,
Inside,
Value,
8.29,
,
,
Outside,
Value,
8.29;

SurfaceProperties:VaporCoefficients,
TopHall+_L1,
Yes,
2e-08,
Yes,
2e-08;

FenestrationSurface:Detailed,
TopHall_door_Bath1,
Door,
Wooden_Door,
TopHall+_L1,
Bath1_door_TopHall,
,
,
,
,
autocalculate,
0.8562500000000001,
5.49,
4.6,
1.6562,
5.49,
4.6,
1.6562,
5.49,
2.6,
0.8562,
5.49,
2.6;

BuildingSurface:Detailed,
TopHall+_L2,
Wall,
Single_Brick_Internal_Wall,
TopHall,
Surface,
Bedroom2_L4_qa001,
NoSun,
NoWind,
autocalculate,
autocalculate,
2.5125,
5.49,
5.2,
2.5125,
4.59,
5.2,
2.5125,
4.59,
2.6,
2.5125,
5.49,
2.6;

SurfaceProperty:ConvectionCoefficients,
TopHall+_L2,
Inside,
Value,
8.29,
,
,
Outside,
Value,
8.29;

SurfaceProperties:VaporCoefficients,
TopHall+_L2,
Yes,
2e-08,
Yes,
2e-08;

FenestrationSurface:Detailed,
TopHall_door_Bedroom2,
Door,
Wooden_Door,
TopHall+_L2,
Bedroom2_door_TopHall,
,
,
,
,
autocalculate,
2.5125,
5.44,
4.6,
2.5125,
4.64,
4.6,
2.5125,
4.64,
2.6,
2.5125,
5.44,
2.6;

BuildingSurface:Detailed,
TopHall+_L3,
Wall,
Single_Brick_Internal_Wall,
TopHall,
Surface,
Staircase_L1,
NoSun,
NoWind,
autocalculate,
autocalculate,
1.075,
4.59,
5.2,
0.0,
4.59,
5.2,
0.0,
4.59,
2.6,
1.075,
4.59,
2.6;

SurfaceProperty:ConvectionCoefficients,
TopHall+_L3,
Inside,
Value,
8.29,
,
,
Outside,
Value,
8.29;

SurfaceProperties:VaporCoefficients,
TopHall+_L3,
Yes,
2e-08,
Yes,
2e-08;

FenestrationSurface:Detailed,
TopHall_door_Staircase,
Door,
Wooden_Door,
TopHall+_L3,
Staircase_door_TopHall,
,
,
,
,
autocalculate,
0.9375,
4.59,
4.6,
0.1375,
4.59,
4.6,
0.1375,
4.59,
2.6,
0.9375,
4.59,
2.6;

BuildingSurface:Detailed,
TopHall+_L4,
Wall,
FILLED_CAVITY_RandomU,
TopHall,
Outdoors,
,
SunExposed,
WindExposed,
autocalculate,
autocalculate,
0.0,
4.59,
5.1000000000000005,
0.0,
5.49,
5.1,
0.0,
5.49,
2.7,
0.0,
4.59,
2.7;

SurfaceProperty:ConvectionCoefficients,
TopHall+_L4,
Inside,
Value,
8.29,
,
,
Outside,
Value,
29.3;

SurfaceProperties:VaporCoefficients,
TopHall+_L4,
Yes,
6.25e-08,
Yes,
2e-08;

FenestrationSurface:Detailed,
TopHall+_L4_window,
Window,
Window_RandomU,
TopHall+_L4,
,
autocalculate,
,
,
,
autocalculate,
0.0,
4.8149999999999995,
4.500000000000001,
0.0,
5.265,
4.5,
0.0,
5.265,
3.3,
0.0,
4.815,
3.3;

AirflowNetwork:MultiZone:Surface,
TopHall+_L4_window,
TopHall+_L4_window_Opening,
TopHall+_L4_window_extN,
1.0,
Temperature,
Window_temperatureX_TopHall_Window_Temperature_,
1.0,
0.0,
100.0,
0.0,
300000.0,
Window_opening_family_TopHall_Window_;

AirflowNetwork:MultiZone:ExternalNode,
TopHall+_L4_window_extN,
3.900000000000001,
L4;

AirflowNetwork:MultiZone:Component:DetailedOpening,
TopHall+_L4_window_Opening,
1e-08,
0.66,
HorizontallyPivoted,
0.0,
2,
0.0,
0.6,
0.0,
0.0,
0.0,
1.0,
0.5,
1.0,
0.33333,
0.66666;

BuildingSurface:Detailed,
TopHall+_Ceiling,
Ceiling,
LoftCeiling_RandomU,
TopHall,
Surface,
Attic_Floor_qa100_qc010_q2,
NoSun,
NoWind,
autocalculate,
autocalculate,
1.075,
5.49,
5.2,
1.075,
4.59,
5.2,
2.5125,
4.59,
5.2,
2.5125,
5.49,
5.2;

SurfaceProperty:ConvectionCoefficients,
TopHall+_Ceiling,
Inside,
Value,
8.29,
,
,
Outside,
Value,
8.29;

BuildingSurface:Detailed,
TopHall+_Ceiling_qa010,
Ceiling,
LoftCeiling_RandomU,
TopHall,
Surface,
Attic_Floor_qa100_qc010_qc010,
NoSun,
NoWind,
autocalculate,
autocalculate,
0.0,
5.49,
5.2,
0.0,
4.59,
5.2,
1.075,
4.59,
5.2,
1.075,
5.49,
5.2;

SurfaceProperty:ConvectionCoefficients,
TopHall+_Ceiling_qa010,
Inside,
Value,
8.29,
,
,
Outside,
Value,
8.29;

BuildingSurface:Detailed,
TopHall+_L4_pu,
Wall,
FILLED_CAVITY_RandomU,
TopHall,
Outdoors,
,
SunExposed,
WindExposed,
autocalculate,
autocalculate,
0.0,
4.59,
5.2,
0.0,
5.49,
5.2,
0.0,
5.49,
5.1,
0.0,
4.59,
5.1;

SurfaceProperty:ConvectionCoefficients,
TopHall+_L4_pu,
Inside,
Value,
8.29,
,
,
Outside,
Value,
29.3;

SurfaceProperties:VaporCoefficients,
TopHall+_L4_pu,
Yes,
6.25e-08,
Yes,
2e-08;

AirflowNetwork:MultiZone:Surface,
TopHall+_L4_pu,
TopHall+_L4_pu_Crack,
TopHall+_L4_pu_extN,
1.0,
Constant,
,
1.0,
0.0,
100.0,
0.0,
300000.0;

AirflowNetwork:MultiZone:Surface:Crack,
TopHall+_L4_pu_Crack,
0.00027316656325630995,
0.66,
RCC1;

AirflowNetwork:MultiZone:ExternalNode,
TopHall+_L4_pu_extN,
5.15,
L4;

BuildingSurface:Detailed,
TopHall+_L4_pd,
Wall,
FILLED_CAVITY_RandomU,
TopHall,
Outdoors,
,
SunExposed,
WindExposed,
autocalculate,
autocalculate,
0.0,
4.59,
2.7,
0.0,
5.49,
2.7,
0.0,
5.49,
2.6,
0.0,
4.59,
2.6;

SurfaceProperty:ConvectionCoefficients,
TopHall+_L4_pd,
Inside,
Value,
8.29,
,
,
Outside,
Value,
29.3;

SurfaceProperties:VaporCoefficients,
TopHall+_L4_pd,
Yes,
6.25e-08,
Yes,
2e-08;

AirflowNetwork:MultiZone:Surface,
TopHall+_L4_pd,
TopHall+_L4_pd_Crack,
TopHall+_L4_pd_extN,
1.0,
Constant,
,
1.0,
0.0,
100.0,
0.0,
300000.0;

AirflowNetwork:MultiZone:Surface:Crack,
TopHall+_L4_pd_Crack,
0.00027316656325630995,
0.66,
RCC1;

AirflowNetwork:MultiZone:ExternalNode,
TopHall+_L4_pd_extN,
2.6500000000000004,
L4;

Zone,
Kitchen,
0.0,
0.0,
0.0,
0.0;

AirflowNetwork:MultiZone:Zone,
Kitchen,
Constant,
,
1.0,
0.0,
100.0,
0.0,
300000.0;

ZoneContaminantSourceAndSink:Generic:DepositionRateSink,
Gas_PM25_test_Kitchen_DepRate_,
Kitchen,
5e-05,
Gas_PM25_test_Kitchen_DepRate_;

BuildingSurface:Detailed,
Kitchen_Floor,
Floor,
Suspended_Wooden_Floor,
Kitchen,
Surface,
Cellar_Ceiling_qa010_qb010,
NoSun,
NoWind,
autocalculate,
autocalculate,
0.0,
8.19,
0.0,
1.9,
8.19,
0.0,
1.9,
4.59,
0.0,
0.0,
4.59,
0.0;

BuildingSurface:Detailed,
Kitchen_L1,
Wall,
FILLED_CAVITY_RandomU,
Kitchen,
Outdoors,
,
SunExposed,
WindExposed,
autocalculate,
autocalculate,
0.0,
8.19,
2.5,
3.2,
8.19,
2.5,
3.2,
8.19,
0.1,
0.0,
8.19,
0.1;

SurfaceProperty:ConvectionCoefficients,
Kitchen_L1,
Inside,
Value,
8.29,
,
,
Outside,
Value,
29.3;

SurfaceProperties:VaporCoefficients,
Kitchen_L1,
Yes,
6.25e-08,
Yes,
2e-08;

FenestrationSurface:Detailed,
Kitchen_L1_window,
Window,
Window_RandomU,
Kitchen_L1,
,
autocalculate,
Kitchen_L1_window_Shader,
,
,
autocalculate,
0.8,
8.19,
1.9,
2.4,
8.19,
1.9,
2.4,
8.19,
0.7,
0.8,
8.19,
0.7;

WindowProperty:ShadingControl,
Kitchen_L1_window_Shader,
InteriorShade,
Curtains,
OnIfScheduleAllows,
Window_shading_Kitchen_Window_Shading_,
,
Yes,
No,
,
FixedSlatAngle,
 ;

AirflowNetwork:MultiZone:Surface,
Kitchen_L1_window,
Kitchen_L1_window_Opening,
Kitchen_L1_window_extN,
1.0,
Temperature,
Window_temperatureX_Kitchen_Window_Temperature_,
1.0,
0.0,
100.0,
0.0,
300000.0,
Window_opening_family_Kitchen_Window_;

AirflowNetwork:MultiZone:ExternalNode,
Kitchen_L1_window_extN,
1.2999999999999998,
L1;

AirflowNetwork:MultiZone:Component:DetailedOpening,
Kitchen_L1_window_Opening,
1e-08,
0.66,
HorizontallyPivoted,
0.0,
2,
0.0,
0.6,
0.0,
0.0,
0.0,
1.0,
0.5,
1.0,
0.33333,
0.66666;

BuildingSurface:Detailed,
Kitchen_L2,
Wall,
Single_Brick_Internal_Wall,
Kitchen,
Surface,
Dining_L4_qc010,
NoSun,
NoWind,
autocalculate,
autocalculate,
3.2,
8.19,
2.6,
3.2,
4.59,
2.6,
3.2,
4.59,
0.0,
3.2,
8.19,
0.0;

SurfaceProperty:ConvectionCoefficients,
Kitchen_L2,
Inside,
Value,
8.29,
,
,
Outside,
Value,
8.29;

SurfaceProperties:VaporCoefficients,
Kitchen_L2,
Yes,
2e-08,
Yes,
2e-08;

BuildingSurface:Detailed,
Kitchen_L3,
Wall,
Single_Brick_Internal_Wall,
Kitchen,
Surface,
Hall+_L1,
NoSun,
NoWind,
autocalculate,
autocalculate,
1.9,
4.59,
2.6,
1.075,
4.59,
2.6,
1.075,
4.59,
0.0,
1.9,
4.59,
0.0;

SurfaceProperty:ConvectionCoefficients,
Kitchen_L3,
Inside,
Value,
8.29,
,
,
Outside,
Value,
8.29;

SurfaceProperties:VaporCoefficients,
Kitchen_L3,
Yes,
2e-08,
Yes,
2e-08;

FenestrationSurface:Detailed,
Kitchen_door_Hall,
Door,
Wooden_Door,
Kitchen_L3,
Hall_door_Kitchen,
,
,
,
,
autocalculate,
1.8875,
4.59,
2.0,
1.0875,
4.59,
2.0,
1.0875,
4.59,
0.0,
1.8875,
4.59,
0.0;

AirflowNetwork:MultiZone:Surface,
Kitchen_door_Hall,
Kitchen_door_Hall_Opening,
,
1.0,
Constant,
,
1.0,
0.0,
100.0,
0.0,
300000.0,
Doors_AWESOME_Kitchen_Door_Hall;

AirflowNetwork:MultiZone:Component:DetailedOpening,
Kitchen_door_Hall_Opening,
0.009,
0.5,
NonPivoted,
0.0,
2,
0.0,
0.001,
0.0,
0.0,
0.0,
1.0,
0.78,
1.0,
1.0,
0.0;

BuildingSurface:Detailed,
Kitchen_L4,
Wall,
FILLED_CAVITY_RandomU,
Kitchen,
Outdoors,
,
SunExposed,
WindExposed,
autocalculate,
autocalculate,
0.0,
4.59,
2.5,
0.0,
8.19,
2.5,
0.0,
8.19,
0.1,
0.0,
4.59,
0.1;

SurfaceProperty:ConvectionCoefficients,
Kitchen_L4,
Inside,
Value,
8.29,
,
,
Outside,
Value,
29.3;

SurfaceProperties:VaporCoefficients,
Kitchen_L4,
Yes,
6.25e-08,
Yes,
2e-08;

BuildingSurface:Detailed,
Kitchen_Ceiling,
Ceiling,
Suspended_Wooden_Ceiling,
Kitchen,
Surface,
Bath1_Floor,
NoSun,
NoWind,
autocalculate,
autocalculate,
0.0,
8.19,
2.6,
0.0,
5.49,
2.6,
2.5125,
5.49,
2.6,
2.5125,
8.19,
2.6;

BuildingSurface:Detailed,
Kitchen_L3_qa001,
Wall,
Single_Brick_Internal_Wall,
Kitchen,
Surface,
Staircase_L1_qa100,
NoSun,
NoWind,
autocalculate,
autocalculate,
1.075,
4.59,
2.6,
0.0,
4.59,
2.6,
0.0,
4.59,
0.0,
1.075,
4.59,
0.0;

SurfaceProperty:ConvectionCoefficients,
Kitchen_L3_qa001,
Inside,
Value,
8.29,
,
,
Outside,
Value,
8.29;

SurfaceProperties:VaporCoefficients,
Kitchen_L3_qa001,
Yes,
2e-08,
Yes,
2e-08;

AirflowNetwork:MultiZone:Surface,
Kitchen_L3_qa001,
Kitchen_L3_qa001_Crack,
,
1.0,
Constant,
,
1.0,
0.0,
100.0,
0.0,
300000.0;

AirflowNetwork:MultiZone:Surface:Crack,
Kitchen_L3_qa001_Crack,
0.0007069449484272094,
0.66,
RCC1;

BuildingSurface:Detailed,
Kitchen_L3_qc100,
Wall,
Single_Brick_Internal_Wall,
Kitchen,
Surface,
Hall++_L1,
NoSun,
NoWind,
autocalculate,
autocalculate,
3.2,
4.59,
2.6,
1.9,
4.59,
2.6,
1.9,
4.59,
0.0,
3.2,
4.59,
0.0;

SurfaceProperty:ConvectionCoefficients,
Kitchen_L3_qc100,
Inside,
Value,
8.29,
,
,
Outside,
Value,
8.29;

SurfaceProperties:VaporCoefficients,
Kitchen_L3_qc100,
Yes,
2e-08,
Yes,
2e-08;

BuildingSurface:Detailed,
Kitchen_Ceiling_qa100,
Ceiling,
Suspended_Wooden_Ceiling,
Kitchen,
Surface,
TopHall+_Floor,
NoSun,
NoWind,
autocalculate,
autocalculate,
0.0,
5.49,
2.6,
0.0,
4.59,
2.6,
2.5125,
4.59,
2.6,
2.5125,
5.49,
2.6;

AirflowNetwork:MultiZone:Surface,
Kitchen_Ceiling_qa100,
Kitchen_Ceiling_qa100_Crack,
,
1.0,
Constant,
,
1.0,
0.0,
100.0,
0.0,
300000.0;

AirflowNetwork:MultiZone:Surface:Crack,
Kitchen_Ceiling_qa100_Crack,
0.0005719424918178991,
0.66,
RCC1;

BuildingSurface:Detailed,
Kitchen_Ceiling_qb100,
Ceiling,
Suspended_Wooden_Ceiling,
Kitchen,
Surface,
Bedroom2_Floor_qa010,
NoSun,
NoWind,
autocalculate,
autocalculate,
2.5125,
5.49,
2.6,
2.5125,
4.59,
2.6,
3.2,
4.59,
2.6,
3.2,
5.49,
2.6;

BuildingSurface:Detailed,
Kitchen_Ceiling_qc100,
Ceiling,
Suspended_Wooden_Ceiling,
Kitchen,
Surface,
Bedroom2_Floor_qa010_qc010,
NoSun,
NoWind,
autocalculate,
autocalculate,
2.5125,
8.19,
2.6,
2.5125,
5.49,
2.6,
3.2,
5.49,
2.6,
3.2,
8.19,
2.6;

BuildingSurface:Detailed,
Kitchen_Floor_qc100,
Floor,
Suspended_Wooden_Floor,
Kitchen,
Surface,
Cellar_Ceiling_qa010_qc010,
NoSun,
NoWind,
autocalculate,
autocalculate,
1.9,
8.19,
0.0,
3.2,
8.19,
0.0,
3.2,
4.59,
0.0,
1.9,
4.59,
0.0;

BuildingSurface:Detailed,
Kitchen_L1_pu,
Wall,
FILLED_CAVITY_RandomU,
Kitchen,
Outdoors,
,
SunExposed,
WindExposed,
autocalculate,
autocalculate,
0.0,
8.19,
2.6,
3.2,
8.19,
2.6,
3.2,
8.19,
2.5,
0.0,
8.19,
2.5;

SurfaceProperty:ConvectionCoefficients,
Kitchen_L1_pu,
Inside,
Value,
8.29,
,
,
Outside,
Value,
29.3;

SurfaceProperties:VaporCoefficients,
Kitchen_L1_pu,
Yes,
6.25e-08,
Yes,
2e-08;

AirflowNetwork:MultiZone:Surface,
Kitchen_L1_pu,
Kitchen_L1_pu_ExhaustFan,
Kitchen_L1_pu_extN,
1.0,
Constant,
,
1.0,
0.0,
100.0,
0.0,
300000.0;

AirflowNetwork:MultiZone:Component:ZoneExhaustFan,
Kitchen_L1_pu_ExhaustFan,
0.0009712588915779907,
0.66,
RCC1;

Fan:ZoneExhaust,
Kitchen_L1_pu_ExhaustFan,
WorkingAdult2_Kitchen_ExhaustFan_,
0.5,
600.0,
0.06,
Kitchen_Exhaust,
Kitchen_Out,
General;

AirflowNetwork:MultiZone:ExternalNode,
Kitchen_L1_pu_extN,
2.5500000000000003,
L1;

BuildingSurface:Detailed,
Kitchen_L1_pd,
Wall,
FILLED_CAVITY_RandomU,
Kitchen,
Outdoors,
,
SunExposed,
WindExposed,
autocalculate,
autocalculate,
0.0,
8.19,
0.1,
3.2,
8.19,
0.1,
3.2,
8.19,
0.0,
0.0,
8.19,
0.0;

SurfaceProperty:ConvectionCoefficients,
Kitchen_L1_pd,
Inside,
Value,
8.29,
,
,
Outside,
Value,
29.3;

SurfaceProperties:VaporCoefficients,
Kitchen_L1_pd,
Yes,
6.25e-08,
Yes,
2e-08;

AirflowNetwork:MultiZone:Surface,
Kitchen_L1_pd,
Kitchen_L1_pd_Crack,
Kitchen_L1_pd_extN,
1.0,
Constant,
,
1.0,
0.0,
100.0,
0.0,
300000.0;

AirflowNetwork:MultiZone:Surface:Crack,
Kitchen_L1_pd_Crack,
0.0009712588915779907,
0.66,
RCC1;

AirflowNetwork:MultiZone:ExternalNode,
Kitchen_L1_pd_extN,
0.05,
L1;

BuildingSurface:Detailed,
Kitchen_L4_pu,
Wall,
FILLED_CAVITY_RandomU,
Kitchen,
Outdoors,
,
SunExposed,
WindExposed,
autocalculate,
autocalculate,
0.0,
4.59,
2.6,
0.0,
8.19,
2.6,
0.0,
8.19,
2.5,
0.0,
4.59,
2.5;

SurfaceProperty:ConvectionCoefficients,
Kitchen_L4_pu,
Inside,
Value,
8.29,
,
,
Outside,
Value,
29.3;

SurfaceProperties:VaporCoefficients,
Kitchen_L4_pu,
Yes,
6.25e-08,
Yes,
2e-08;

AirflowNetwork:MultiZone:Surface,
Kitchen_L4_pu,
Kitchen_L4_pu_Crack,
Kitchen_L4_pu_extN,
1.0,
Constant,
,
1.0,
0.0,
100.0,
0.0,
300000.0;

AirflowNetwork:MultiZone:Surface:Crack,
Kitchen_L4_pu_Crack,
0.0010926662530252398,
0.66,
RCC1;

AirflowNetwork:MultiZone:ExternalNode,
Kitchen_L4_pu_extN,
2.5500000000000003,
L4;

BuildingSurface:Detailed,
Kitchen_L4_pd,
Wall,
FILLED_CAVITY_RandomU,
Kitchen,
Outdoors,
,
SunExposed,
WindExposed,
autocalculate,
autocalculate,
0.0,
4.59,
0.1,
0.0,
8.19,
0.1,
0.0,
8.19,
0.0,
0.0,
4.59,
0.0;

SurfaceProperty:ConvectionCoefficients,
Kitchen_L4_pd,
Inside,
Value,
8.29,
,
,
Outside,
Value,
29.3;

SurfaceProperties:VaporCoefficients,
Kitchen_L4_pd,
Yes,
6.25e-08,
Yes,
2e-08;

AirflowNetwork:MultiZone:Surface,
Kitchen_L4_pd,
Kitchen_L4_pd_Crack,
Kitchen_L4_pd_extN,
1.0,
Constant,
,
1.0,
0.0,
100.0,
0.0,
300000.0;

AirflowNetwork:MultiZone:Surface:Crack,
Kitchen_L4_pd_Crack,
0.0010926662530252398,
0.66,
RCC1;

AirflowNetwork:MultiZone:ExternalNode,
Kitchen_L4_pd_extN,
0.05,
L4;

People,
WorkingAdult2_Kitchen,
Kitchen,
WorkingAdult2_Kitchen_Presence_,
People,
1,
,
,
0.1,
autocalculate,
WorkingAdult2_Kitchen_Metabolism_,
3.82e-08,
No,
ZoneAveraged;

Lights,
Kitchen_WorkingAdult2_Kitchen_Appliance_Lights_Lights,
Kitchen,
WorkingAdult2_Kitchen_Appliance_Lights,
LightingLevel,
40.0,
,
,
0,
0,
0,
1;

ElectricEquipment,
Kitchen_WorkingAdult2_Kitchen_Appliance_NIST_HOB_NIST_HOB,
Kitchen,
WorkingAdult2_Kitchen_Appliance_NIST_HOB,
EquipmentLevel,
1440.0,
,
,
0.3,
0.2,
0.3;

ElectricEquipment,
Kitchen_WorkingAdult2_Kitchen_Appliance_NIST_OVEN_NIST_OVEN,
Kitchen,
WorkingAdult2_Kitchen_Appliance_NIST_OVEN,
EquipmentLevel,
2040.0,
,
,
0.3,
0.2,
0.3;

ElectricEquipment,
Kitchen_WorkingAdult2_Kitchen_Appliance_CIBSE_COOK_MOISTURE_CIBSE_COOK_MOISTURE,
Kitchen,
WorkingAdult2_Kitchen_Appliance_CIBSE_COOK_MOISTURE,
EquipmentLevel,
0.33426666680000006,
,
,
1.0,
0.0,
0.0;

ElectricEquipment,
Kitchen_HPRU_ROUTINE_Kitchen_Appliance_NIST_FRIDGE_NIST_FRIDGE,
Kitchen,
HPRU_ROUTINE_Kitchen_Appliance_NIST_FRIDGE,
EquipmentLevel,
18.400000000000002,
,
,
0.0,
0.5,
0.0;

ElectricEquipment,
Kitchen_HPRU_ROUTINE_Kitchen_Appliance_NIST_WASHINGMACHINE_NIST_WASHINGMACHINE,
Kitchen,
HPRU_ROUTINE_Kitchen_Appliance_NIST_WASHINGMACHINE,
EquipmentLevel,
200.0,
,
,
0.0,
0.4,
0.19999999999999996;

ElectricEquipment,
Kitchen_HPRU_ROUTINE_Kitchen_Appliance_NIST_DISHWASHER_NIST_DISHWASHER,
Kitchen,
HPRU_ROUTINE_Kitchen_Appliance_NIST_DISHWASHER,
EquipmentLevel,
436.0,
,
,
0.15,
0.3,
0.25;

ZoneHVAC:EquipmentList,
Kitchen_equiplist,
Fan:ZoneExhaust,
Kitchen_L1_pu_ExhaustFan,
1,
1;

ZoneHVAC:EquipmentConnections,
Kitchen,
Kitchen_equiplist,
,
Kitchen_Exhaust,
Kitchen_Air,
Kitchen_Outlet;

Zone,
Bedroom2,
0.0,
0.0,
0.0,
0.0;

AirflowNetwork:MultiZone:Zone,
Bedroom2,
Constant,
,
1.0,
0.0,
100.0,
0.0,
300000.0;

ZoneContaminantSourceAndSink:Generic:DepositionRateSink,
Gas_PM25_test_Bedroom2_DepRate_,
Bedroom2,
5e-05,
Gas_PM25_test_Bedroom2_DepRate_;

BuildingSurface:Detailed,
Bedroom2_Floor,
Floor,
Suspended_Wooden_Floor,
Bedroom2,
Surface,
Dining_Ceiling_qc010,
NoSun,
NoWind,
autocalculate,
autocalculate,
3.2,
8.19,
2.6,
6.3,
8.19,
2.6,
6.3,
4.59,
2.6,
3.2,
4.59,
2.6;

AirflowNetwork:MultiZone:Surface,
Bedroom2_Floor,
Bedroom2_Floor_Crack,
,
1.0,
Constant,
,
1.0,
0.0,
100.0,
0.0,
300000.0;

AirflowNetwork:MultiZone:Surface:Crack,
Bedroom2_Floor_Crack,
0.002822721153648535,
0.66,
RCC1;

BuildingSurface:Detailed,
Bedroom2_L1,
Wall,
FILLED_CAVITY_RandomU,
Bedroom2,
Outdoors,
,
SunExposed,
WindExposed,
autocalculate,
autocalculate,
2.5125,
8.19,
5.1000000000000005,
6.3,
8.19,
5.1,
6.3,
8.19,
2.7,
2.5125,
8.19,
2.7;

SurfaceProperty:ConvectionCoefficients,
Bedroom2_L1,
Inside,
Value,
8.29,
,
,
Outside,
Value,
29.3;

SurfaceProperties:VaporCoefficients,
Bedroom2_L1,
Yes,
6.25e-08,
Yes,
2e-08;

FenestrationSurface:Detailed,
Bedroom2_L1_window,
Window,
Window_RandomU,
Bedroom2_L1,
,
autocalculate,
Bedroom2_L1_window_Shader,
,
,
autocalculate,
3.459375,
8.19,
4.500000000000001,
5.3531,
8.19,
4.5,
5.3531,
8.19,
3.3,
3.4594,
8.19,
3.3;

WindowProperty:ShadingControl,
Bedroom2_L1_window_Shader,
InteriorShade,
Curtains,
OnIfScheduleAllows,
Window_shading_Bedroom2_Window_Shading_,
,
Yes,
No,
,
FixedSlatAngle,
 ;

AirflowNetwork:MultiZone:Surface,
Bedroom2_L1_window,
Bedroom2_L1_window_Opening,
Bedroom2_L1_window_extN,
1.0,
Temperature,