Version,
8.1.0.009;

SimulationControl,
No,
No,
No,
Yes,
Yes;

Building,
Highrise,
0.0,
City,
0.04,
0.4,
FullExterior,
25,
6;

SurfaceConvectionAlgorithm:Inside,
TARP;

SurfaceConvectionAlgorithm:Outside,
TARP;

HeatBalanceAlgorithm,
ConductionTransferFunction,
200;

Timestep,
6;

RunPeriod,
,
1,
1,
12,
31,
Monday,
Yes,
Yes,
No,
Yes,
Yes,
1;

Site:GroundTemperature:BuildingSurface,
8.3,
6.4,
5.8,
6.3,
8.9,
11.7,
14.4,
16.4,
17,
16.1,
13.8,
11;

ScheduleTypeLimits,
Control,
0,
4,
Discrete,
Control;

ScheduleTypeLimits,
Thermal,
-20.0,
60.0,
Continuous,
Temperature;

ScheduleTypeLimits,
Fraction,
0.0,
10.0,
Continuous,
Dimensionless;

ScheduleTypeLimits,
Number,
0.0,
1000000000.0,
Continuous,
Dimensionless;

Material,
Concrete_0.5,
Rough,
0.5,
1.6,
2300,
850,
0.9,
0.7,
0.7;

Material,
Brick_0.11,
Rough,
0.11,
0.6,
1712,
850,
0.9,
0.7,
0.7;

Material,
Spruce_0.04,
Rough,
0.04,
0.09,
455,
1500,
0.9,
0.7,
0.7;

Material,
Gypsum_0.01,
Rough,
0.01,
0.2,
850,
850,
0.9,
0.6,
0.7;

Material,
Concrete_0.04,
Rough,
0.04,
1.6,
2300,
850,
0.9,
0.7,
0.7;

Material,
Brick_0.1,
Rough,
0.1,
0.6,
1712,
850,
0.9,
0.7,
0.7;

Material,
Concrete_0.01,
Rough,
0.01,
1.6,
2300,
850,
0.9,
0.7,
0.7;

Material,
Spruce_0.0125,
Rough,
0.0125,
0.09,
455,
1500,
0.9,
0.7,
0.7;

Material,
AirGap_0.1,
Rough,
0.1,
0.02485,
1.204,
1004,
0.9,
0.7,
0.7;

Material,
AirGapExt_0.01,
Rough,
0.01,
0.02485,
1.204,
1004,
0.9,
0.7,
0.7;

Material,
Spruce_0.05,
Rough,
0.05,
0.09,
455,
1500,
0.9,
0.7,
0.7;

Material,
GlassFiberFloor_0.0065,
Rough,
0.0065,
0.04,
80,
840,
0.9,
0.7,
0.7;

Material,
Gypsum_0.1,
Rough,
0.1,
0.2,
850,
850,
0.9,
0.6,
0.7;

Material,
AirGapRoof_0.0001,
Rough,
0.0001,
0.02485,
1.204,
1004,
0.9,
0.7,
0.7;

WindowMaterial:Glazing,
Glass_0.01,
SpectralAverage,
,
0.01,
0.775,
0.071,
0.071,
0.881,
0.08,
0.08,
0.0,
0.84,
0.84,
0.9;

WindowMaterial:Gas,
GasWin_0.01,
Air,
0.01;

WindowMaterial:Shade,
Drapes_0.004,
0.05,
0.3,
0.05,
0.3,
0.9,
0.0,
0.004,
0.1,
0.05,
1.0,
1.0,
0.0,
0.0,
0.0;

Construction,
Single_Brick_Internal_Wall,
Gypsum_0.01,
Brick_0.1,
Gypsum_0.01;

Construction,
Suspended_Wooden_Ceiling,
Spruce_0.05,
AirGap_0.1,
Gypsum_0.01;

Construction,
3.10_Roof,
Concrete_0.04,
Gypsum_0.01;

Construction,
Suspended_Wooden_Floor,
Gypsum_0.01,
AirGap_0.1,
Spruce_0.05;

Construction,
LoftCeiling_RandomU,
Gypsum_0.01,
AirGapRoof_0.0001,
Spruce_0.0125,
Concrete_0.01;

Construction,
LoftFloor_RandomU,
Concrete_0.01,
Spruce_0.0125,
AirGapRoof_0.0001,
Gypsum_0.01;

Construction,
FLOOR_RandomU,
Concrete_0.5,
GlassFiberFloor_0.0065,
Gypsum_0.1;

Construction,
Wooden_Door,
Spruce_0.04;

Construction,
Window_RandomU,
Glass_0.01,
GasWin_0.01,
Glass_0.01;

Construction,
CAVITY_RandomU,
Brick_0.11,
AirGapExt_0.01,
Brick_0.11,
Gypsum_0.01;

Construction,
Curtains,
Glass_0.01,
GasWin_0.01,
Glass_0.01,
Drapes_0.004;

AirflowNetwork:SimulationControl,
AF1,
MultiZoneWithoutDistribution,
Input,
WParray,
ExternalNode,
LowRise,
500,
ZeroNodePressures,
0.0001,
1.E-6,
-0.5,
0,
1;

AirflowNetwork:MultiZone:ReferenceCrackConditions,
RCC1,
20,
101325,
0;

AirflowNetwork:MultiZone:WindPressureCoefficientArray,
WParray,
0.0,
30.0,
60.0,
90.0,
120.0,
150.0,
180.0,
210.0,
240.0,
270.0,
300.0,
330.0,
360.0;

AirflowNetwork:MultiZone:WindPressureCoefficientValues,
Ceiling,
WParray,
0,
0,
0,
0,
0,
0,
0,
0,
0,
0,
0,
0,
0;

AirflowNetwork:MultiZone:WindPressureCoefficientValues,
L2,
WParray,
-0.34,
0.183,
0.48,
0.603,
0.603,
0.48,
0.183,
-0.34,
-0.632,
-0.37,
-0.452,
-0.37,
-0.632;

AirflowNetwork:MultiZone:WindPressureCoefficientValues,
L1,
WParray,
0.603,
0.48,
0.183,
-0.34,
-0.632,
-0.37,
-0.452,
-0.37,
-0.632,
-0.34,
0.183,
0.48,
0.603;

AirflowNetwork:MultiZone:WindPressureCoefficientValues,
L3,
WParray,
-0.452,
-0.37,
-0.632,
-0.34,
0.183,
0.48,
0.603,
0.48,
0.183,
-0.34,
-0.632,
-0.37,
-0.452;

AirflowNetwork:MultiZone:WindPressureCoefficientValues,
Floor,
WParray,
0,
0,
0,
0,
0,
0,
0,
0,
0,
0,
0,
0,
0;

AirflowNetwork:MultiZone:WindPressureCoefficientValues,
L4,
WParray,
-0.34,
-0.632,
-0.37,
-0.452,
-0.37,
-0.632,
-0.34,
0.183,
0.48,
0.603,
0.603,
0.48,
0.183;

ZoneAirContaminantBalance,
No,
,
Yes,
Gas_PM25_test_Outside_Contaminant_;

GlobalGeometryRules,
UpperLeftCorner,
CounterClockwise,
Relative;

Shading:Building:Detailed,
House1_0,
,
4,
-6.661338147750939e-16,
13.5,
0.0,
-0.0,
13.5,
31.2,
-3.1,
13.5,
31.2,
-3.1,
13.5,
0.0;

Shading:Building:Detailed,
House1_1,
,
4,
-6.661338147750939e-16,
6.6,
0.0,
-0.0,
6.6,
31.2,
0.0,
13.5,
31.2,
0.0,
13.5,
0.0;

Shading:Building:Detailed,
House1_2,
,
4,
-1.3000000000000007,
6.6,
0.0,
-1.3,
6.6,
31.2,
0.0,
6.6,
31.2,
0.0,
6.6,
0.0;

Shading:Building:Detailed,
House1_3,
,
4,
-3.1000000000000005,
13.5,
0.0,
-3.1,
13.5,
31.2,
-8.3,
13.5,
31.2,
-8.3,
13.5,
0.0;

Shading:Building:Detailed,
House1_4,
,
4,
-8.3,
13.5,
0.0,
-8.3,
13.5,
31.2,
-8.3,
11.0,
31.2,
-8.3,
11.0,
0.0;

Shading:Building:Detailed,
House1_5,
,
4,
-8.3,
11.0,
0.0,
-8.3,
11.0,
31.2,
-8.3,
8.3,
31.2,
-8.3,
8.3,
0.0;

Shading:Building:Detailed,
House1_6,
,
4,
-8.3,
8.3,
0.0,
-8.3,
8.3,
31.2,
-7.3,
8.3,
31.2,
-7.3,
8.3,
0.0;

Shading:Building:Detailed,
House1_7,
,
4,
-4.1000000000000005,
4.5,
0.0,
-4.1,
4.5,
31.2,
-8.3,
4.5,
31.2,
-8.3,
4.5,
0.0;

Shading:Building:Detailed,
House1_8,
,
4,
-8.3,
4.5,
0.0,
-8.3,
4.5,
31.2,
-8.3,
0.0,
31.2,
-8.3,
0.0,
0.0;

Shading:Building:Detailed,
House1_9,
,
4,
-8.3,
0.0,
0.0,
-8.3,
0.0,
31.2,
-4.1,
0.0,
31.2,
-4.1,
0.0,
0.0;

Shading:Building:Detailed,
House1_10,
,
4,
-7.300000000000001,
8.3,
0.0,
-7.3,
8.3,
31.2,
-7.3,
4.5,
31.2,
-7.3,
4.5,
0.0;

Shading:Building:Detailed,
House1_11,
,
4,
-7.300000000000001,
4.500000000000001,
0.0,
-7.3,
4.5,
31.2,
-4.1,
4.5,
31.2,
-4.1,
4.5,
0.0;

Shading:Building:Detailed,
House1_12,
,
4,
-4.1000000000000005,
0.0,
0.0,
-4.1,
0.0,
31.2,
-1.3,
0.0,
31.2,
-1.3,
0.0,
0.0;

Shading:Building:Detailed,
House1_13,
,
4,
-1.3000000000000007,
0.0,
0.0,
-1.3,
0.0,
31.2,
-1.3,
3.0,
31.2,
-1.3,
3.0,
0.0;

Shading:Building:Detailed,
House1_14,
,
4,
-1.3000000000000007,
3.0,
0.0,
-1.3,
3.0,
31.2,
-3.1,
3.0,
31.2,
-3.1,
3.0,
0.0;

Shading:Building:Detailed,
House1_15,
,
4,
-1.3000000000000007,
6.4,
0.0,
-1.3,
6.4,
31.2,
-3.1,
6.4,
31.2,
-3.1,
6.4,
0.0;

Shading:Building:Detailed,
House1_16,
,
4,
-3.1000000000000005,
3.0000000000000004,
0.0,
-3.1,
3.0,
31.2,
-1.3,
3.0,
31.2,
-1.3,
3.0,
0.0;

Shading:Building:Detailed,
House1_17,
,
4,
-1.3000000000000007,
3.0000000000000004,
0.0,
-1.3,
3.0,
31.2,
-1.3,
6.4,
31.2,
-1.3,
6.4,
0.0;

Shading:Building:Detailed,
House1_18,
,
4,
-3.1000000000000005,
6.3999999999999995,
0.0,
-3.1,
6.4,
31.2,
-1.3,
6.4,
31.2,
-1.3,
6.4,
0.0;

Shading:Building:Detailed,
House1_19,
,
4,
-1.3000000000000007,
6.3999999999999995,
0.0,
-1.3,
6.4,
31.2,
-1.3,
6.6,
31.2,
-1.3,
6.6,
0.0;

Shading:Building:Detailed,
House2_0,
,
4,
-1.3,
27.0,
0.0,
-1.3,
27.0,
31.2,
1.8,
27.0,
31.2,
1.8,
27.0,
0.0;

Shading:Building:Detailed,
House2_1,
,
4,
-1.3,
20.1,
0.0,
-1.3,
20.1,
31.2,
-1.3,
27.0,
31.2,
-1.3,
27.0,
0.0;

Shading:Building:Detailed,
House2_2,
,
4,
0.0,
20.1,
0.0,
0.0,
20.1,
31.2,
-1.3,
20.1,
31.2,
-1.3,
20.1,
0.0;

Shading:Building:Detailed,
House2_3,
,
4,
1.8,
27.0,
0.0,
1.8,
27.0,
31.2,
7.0,
27.0,
31.2,
7.0,
27.0,
0.0;

Shading:Building:Detailed,
House2_4,
,
4,
7.0,
27.0,
0.0,
7.0,
27.0,
31.2,
7.0,
24.5,
31.2,
7.0,
24.5,
0.0;

Shading:Building:Detailed,
House2_5,
,
4,
7.0,
24.5,
0.0,
7.0,
24.5,
31.2,
7.0,
21.8,
31.2,
7.0,
21.8,
0.0;

Shading:Building:Detailed,
House2_6,
,
4,
7.0,
21.8,
0.0,
7.0,
21.8,
31.2,
6.0,
21.8,
31.2,
6.0,
21.8,
0.0;

Shading:Building:Detailed,
House2_7,
,
4,
2.8,
18.0,
0.0,
2.8,
18.0,
31.2,
7.0,
18.0,
31.2,
7.0,
18.0,
0.0;

Shading:Building:Detailed,
House2_8,
,
4,
7.0,
18.0,
0.0,
7.0,
18.0,
31.2,
7.0,
13.5,
31.2,
7.0,
13.5,
0.0;

Shading:Building:Detailed,
House2_9,
,
4,
7.0,
13.5,
0.0,
7.0,
13.5,
31.2,
2.8,
13.5,
31.2,
2.8,
13.5,
0.0;

Shading:Building:Detailed,
House2_10,
,
4,
6.0,
21.8,
0.0,
6.0,
21.8,
31.2,
6.0,
18.0,
31.2,
6.0,
18.0,
0.0;

Shading:Building:Detailed,
House2_11,
,
4,
6.0,
18.0,
0.0,
6.0,
18.0,
31.2,
2.8,
18.0,
31.2,
2.8,
18.0,
0.0;

Shading:Building:Detailed,
House2_12,
,
4,
2.8,
13.5,
0.0,
2.8,
13.5,
31.2,
0.0,
13.5,
31.2,
0.0,
13.5,
0.0;

Shading:Building:Detailed,
House2_13,
,
4,
0.0,
13.5,
0.0,
0.0,
13.5,
31.2,
0.0,
16.5,
31.2,
0.0,
16.5,
0.0;

Shading:Building:Detailed,
House2_14,
,
4,
0.0,
16.5,
0.0,
0.0,
16.5,
31.2,
1.8,
16.5,
31.2,
1.8,
16.5,
0.0;

Shading:Building:Detailed,
House2_15,
,
4,
0.0,
19.9,
0.0,
0.0,
19.9,
31.2,
1.8,
19.9,
31.2,
1.8,
19.9,
0.0;

Shading:Building:Detailed,
House2_16,
,
4,
1.8,
16.5,
0.0,
1.8,
16.5,
31.2,
0.0,
16.5,
31.2,
0.0,
16.5,
0.0;

Shading:Building:Detailed,
House2_17,
,
4,
0.0,
16.5,
0.0,
0.0,
16.5,
31.2,
0.0,
19.9,
31.2,
0.0,
19.9,
0.0;

Shading:Building:Detailed,
House2_18,
,
4,
1.8,
19.9,
0.0,
1.8,
19.9,
31.2,
0.0,
19.9,
31.2,
0.0,
19.9,
0.0;

Shading:Building:Detailed,
House2_19,
,
4,
0.0,
19.9,
0.0,
0.0,
19.9,
31.2,
0.0,
20.1,
31.2,
0.0,
20.1,
0.0;

Shading:Building:Detailed,
Block1_0,
,
4,
-8.5,
-15.0,
0.0,
-8.5,
-15.0,
31.2,
6.5,
-15.0,
31.2,
6.5,
-15.0,
0.0;

Shading:Building:Detailed,
Block1_1,
,
4,
6.5,
-15.0,
0.0,
6.5,
-15.0,
31.2,
6.5,
-30.0,
31.2,
6.5,
-30.0,
0.0;

Shading:Building:Detailed,
Block1_2,
,
4,
6.5,
-30.0,
0.0,
6.5,
-30.0,
31.2,
-8.5,
-30.0,
31.2,
-8.5,
-30.0,
0.0;

Shading:Building:Detailed,
Block1_3,
,
4,
-8.5,
-30.0,
0.0,
-8.5,
-30.0,
31.2,
-8.5,
-15.0,
31.2,
-8.5,
-15.0,
0.0;

Zone,
Bedroom1_TF,
0.0,
0.0,
0.0,
0.0;

AirflowNetwork:MultiZone:Zone,
Bedroom1_TF,
Constant,
,
1.0,
0.0,
100.0,
0.0,
300000.0;

ZoneContaminantSourceAndSink:Generic:DepositionRateSink,
Gas_PM25_test_Bedroom1_TF_DepRate_,
Bedroom1_TF,
5e-05,
Gas_PM25_test_Bedroom1_TF_DepRate_;

BuildingSurface:Detailed,
Bedroom1_TF_Floor,
Floor,
Suspended_Wooden_Floor,
Bedroom1_TF,
Surface,
Unzoned10_Ceiling,
NoSun,
NoWind,
autocalculate,
autocalculate,
2.8,
8.3,
26.4,
6.0,
8.3,
26.4,
6.0,
4.5,
26.4,
2.8,
4.5,
26.4;

AirflowNetwork:MultiZone:Surface,
Bedroom1_TF_Floor,
Bedroom1_TF_Floor_Crack,
,
1.0,
Constant,
,
1.0,
0.0,
100.0,
0.0,
300000.0;

AirflowNetwork:MultiZone:Surface:Crack,
Bedroom1_TF_Floor_Crack,
0.006151306313327275,
0.66,
RCC1;

BuildingSurface:Detailed,
Bedroom1_TF_L1,
Wall,
Single_Brick_Internal_Wall,
Bedroom1_TF,
Surface,
Bedroom2_TF_L3,
NoSun,
NoWind,
autocalculate,
autocalculate,
2.8,
8.3,
28.799999999999997,
6.0,
8.3,
28.8,
6.0,
8.3,
26.4,
2.8,
8.3,
26.4;

SurfaceProperty:ConvectionCoefficients,
Bedroom1_TF_L1,
Inside,
Value,
8.29,
,
,
Outside,
Value,
8.29;

SurfaceProperties:VaporCoefficients,
Bedroom1_TF_L1,
Yes,
2e-08,
Yes,
2e-08;

AirflowNetwork:MultiZone:Surface,
Bedroom1_TF_L1,
Bedroom1_TF_L1_Crack,
,
1.0,
Constant,
,
1.0,
0.0,
100.0,
0.0,
300000.0;

AirflowNetwork:MultiZone:Surface:Crack,
Bedroom1_TF_L1_Crack,
0.003885035566311963,
0.66,
RCC1;

BuildingSurface:Detailed,
Bedroom1_TF_L2,
Wall,
CAVITY_RandomU,
Bedroom1_TF,
Outdoors,
,
SunExposed,
WindExposed,
autocalculate,
autocalculate,
6.0,
8.3,
28.699999999999996,
6.0,
4.5,
28.7,
6.0,
4.5,
26.5,
6.0,
8.3,
26.5;

SurfaceProperty:ConvectionCoefficients,
Bedroom1_TF_L2,
Inside,
Value,
8.29,
,
,
Outside,
Value,
29.3;

SurfaceProperties:VaporCoefficients,
Bedroom1_TF_L2,
Yes,
6.25e-08,
Yes,
2e-08;

FenestrationSurface:Detailed,
Bedroom1_TF_L2_window,
Window,
Window_RandomU,
Bedroom1_TF_L2,
,
autocalculate,
,
,
,
autocalculate,
6.0,
7.632805743010634,
28.31372964069036,
6.0,
5.1672,
28.3137,
6.0,
5.1672,
26.8862,
6.0,
7.6328,
26.8862;

AirflowNetwork:MultiZone:Surface,
Bedroom1_TF_L2_window,
Bedroom1_TF_L2_window_Opening,
Bedroom1_TF_L2_window_extN,
1.0,
Temperature,
Window_temperatureX_Bedroom1_TF_Window_Temperature_,
1.0,
0.0,
100.0,
0.0,
300000.0,
Window_opening_pensioner_Bedroom1_TF_Window_;

AirflowNetwork:MultiZone:ExternalNode,
Bedroom1_TF_L2_window_extN,
27.599999999999994,
L2;

AirflowNetwork:MultiZone:Component:DetailedOpening,
Bedroom1_TF_L2_window_Opening,
1e-08,
0.66,
HorizontallyPivoted,
0.0,
2,
0.0,
0.6,
0.0,
0.0,
0.0,
1.0,
0.5,
1.0,
0.33333,
0.66666;

BuildingSurface:Detailed,
Bedroom1_TF_L3,
Wall,
CAVITY_RandomU,
Bedroom1_TF,
Outdoors,
,
SunExposed,
WindExposed,
autocalculate,
autocalculate,
6.0,
4.500000000000001,
28.699999999999996,
2.8,
4.5,
28.7,
2.8,
4.5,
26.5,
6.0,
4.5,
26.5;

SurfaceProperty:ConvectionCoefficients,
Bedroom1_TF_L3,
Inside,
Value,
8.29,
,
,
Outside,
Value,
29.3;

SurfaceProperties:VaporCoefficients,
Bedroom1_TF_L3,
Yes,
6.25e-08,
Yes,
2e-08;

BuildingSurface:Detailed,
Bedroom1_TF_L4,
Wall,
Single_Brick_Internal_Wall,
Bedroom1_TF,
Surface,
Hall_TF_L2,
NoSun,
NoWind,
autocalculate,
autocalculate,
2.8,
4.500000000000001,
28.799999999999997,
2.8,
8.3,
28.8,
2.8,
8.3,
26.4,
2.8,
4.5,
26.4;

SurfaceProperty:ConvectionCoefficients,
Bedroom1_TF_L4,
Inside,
Value,
8.29,
,
,
Outside,
Value,
8.29;

SurfaceProperties:VaporCoefficients,
Bedroom1_TF_L4,
Yes,
2e-08,
Yes,
2e-08;

AirflowNetwork:MultiZone:Surface,
Bedroom1_TF_L4,
Bedroom1_TF_L4_Crack,
,
1.0,
Constant,
,
1.0,
0.0,
100.0,
0.0,
300000.0;

AirflowNetwork:MultiZone:Surface:Crack,
Bedroom1_TF_L4_Crack,
0.004613479734995456,
0.66,
RCC1;

FenestrationSurface:Detailed,
Bedroom1_TF_door_Hall_TF,
Door,
Wooden_Door,
Bedroom1_TF_L4,
Hall_TF_door_Bedroom1_TF,
,
,
,
,
autocalculate,
2.8,
6.000000000000001,
28.4,
2.8,
6.8,
28.4,
2.8,
6.8,
26.4,
2.8,
6.0,
26.4;

AirflowNetwork:MultiZone:Surface,
Bedroom1_TF_door_Hall_TF,
Bedroom1_TF_door_Hall_TF_Opening,
,
1.0,
Constant,
,
1.0,
0.0,
100.0,
0.0,
300000.0,
Doors_AWESOME_Bedroom1_TF_Door_Hall_TF;

AirflowNetwork:MultiZone:Component:DetailedOpening,
Bedroom1_TF_door_Hall_TF_Opening,
0.009,
0.5,
NonPivoted,
0.0,
2,
0.0,
0.001,
0.0,
0.0,
0.0,
1.0,
0.78,
1.0,
1.0,
0.0;

BuildingSurface:Detailed,
Bedroom1_TF_Ceiling,
Ceiling,
3.10_Roof,
Bedroom1_TF,
Outdoors,
,
SunExposed,
WindExposed,
autocalculate,
autocalculate,
2.8,
8.3,
28.799999999999997,
2.8,
4.5,
28.8,
6.0,
4.5,
28.8,
6.0,
8.3,
28.8;

SurfaceProperty:ConvectionCoefficients,
Bedroom1_TF_Ceiling,
Inside,
Value,
8.29,
,
,
Outside,
Value,
8.29;

BuildingSurface:Detailed,
Bedroom1_TF_L2_pu,
Wall,
CAVITY_RandomU,
Bedroom1_TF,
Outdoors,
,
SunExposed,
WindExposed,
autocalculate,
autocalculate,
6.0,
8.3,
28.799999999999997,
6.0,
4.5,
28.8,
6.0,
4.5,
28.7,
6.0,
8.3,
28.7;

SurfaceProperty:ConvectionCoefficients,
Bedroom1_TF_L2_pu,
Inside,
Value,
8.29,
,
,
Outside,
Value,
29.3;

SurfaceProperties:VaporCoefficients,
Bedroom1_TF_L2_pu,
Yes,
6.25e-08,
Yes,
2e-08;

AirflowNetwork:MultiZone:Surface,
Bedroom1_TF_L2_pu,
Bedroom1_TF_L2_pu_Crack,
Bedroom1_TF_L2_pu_extN,
1.0,
Constant,
,
1.0,
0.0,
100.0,
0.0,
300000.0;

AirflowNetwork:MultiZone:Surface:Crack,
Bedroom1_TF_L2_pu_Crack,
0.0021145115452062507,
0.66,
RCC1;

AirflowNetwork:MultiZone:ExternalNode,
Bedroom1_TF_L2_pu_extN,
28.749999999999996,
L2;

BuildingSurface:Detailed,
Bedroom1_TF_L2_pd,
Wall,
CAVITY_RandomU,
Bedroom1_TF,
Outdoors,
,
SunExposed,
WindExposed,
autocalculate,
autocalculate,
6.0,
8.3,
26.5,
6.0,
4.5,
26.5,
6.0,
4.5,
26.4,
6.0,
8.3,
26.4;

SurfaceProperty:ConvectionCoefficients,
Bedroom1_TF_L2_pd,
Inside,
Value,
8.29,
,
,
Outside,
Value,
29.3;

SurfaceProperties:VaporCoefficients,
Bedroom1_TF_L2_pd,
Yes,
6.25e-08,
Yes,
2e-08;

AirflowNetwork:MultiZone:Surface,
Bedroom1_TF_L2_pd,
Bedroom1_TF_L2_pd_Crack,
Bedroom1_TF_L2_pd_extN,
1.0,
Constant,
,
1.0,
0.0,
100.0,
0.0,
300000.0;

AirflowNetwork:MultiZone:Surface:Crack,
Bedroom1_TF_L2_pd_Crack,
0.0021145115452062507,
0.66,
RCC1;

AirflowNetwork:MultiZone:ExternalNode,
Bedroom1_TF_L2_pd_extN,
26.45,
L2;

BuildingSurface:Detailed,
Bedroom1_TF_L3_pu,
Wall,
CAVITY_RandomU,
Bedroom1_TF,
Outdoors,
,
SunExposed,
WindExposed,
autocalculate,
autocalculate,
6.0,
4.500000000000001,
28.799999999999997,
2.8,
4.5,
28.8,
2.8,
4.5,
28.7,
6.0,
4.5,
28.7;

SurfaceProperty:ConvectionCoefficients,
Bedroom1_TF_L3_pu,
Inside,
Value,
8.29,
,
,
Outside,
Value,
29.3;

SurfaceProperties:VaporCoefficients,
Bedroom1_TF_L3_pu,
Yes,
6.25e-08,
Yes,
2e-08;

AirflowNetwork:MultiZone:Surface,
Bedroom1_TF_L3_pu,
Bedroom1_TF_L3_pu_Crack,
Bedroom1_TF_L3_pu_extN,
1.0,
Constant,
,
1.0,
0.0,
100.0,
0.0,
300000.0;

AirflowNetwork:MultiZone:Surface:Crack,
Bedroom1_TF_L3_pu_Crack,
0.0017806413012263162,
0.66,
RCC1;

AirflowNetwork:MultiZone:ExternalNode,
Bedroom1_TF_L3_pu_extN,
28.749999999999996,
L3;

BuildingSurface:Detailed,
Bedroom1_TF_L3_pd,
Wall,
CAVITY_RandomU,
Bedroom1_TF,
Outdoors,
,
SunExposed,
WindExposed,
autocalculate,
autocalculate,
6.0,
4.500000000000001,
26.5,
2.8,
4.5,
26.5,
2.8,
4.5,
26.4,
6.0,
4.5,
26.4;

SurfaceProperty:ConvectionCoefficients,
Bedroom1_TF_L3_pd,
Inside,
Value,
8.29,
,
,
Outside,
Value,
29.3;

SurfaceProperties:VaporCoefficients,
Bedroom1_TF_L3_pd,
Yes,
6.25e-08,
Yes,
2e-08;

AirflowNetwork:MultiZone:Surface,
Bedroom1_TF_L3_pd,
Bedroom1_TF_L3_pd_Crack,
Bedroom1_TF_L3_pd_extN,
1.0,
Constant,
,
1.0,
0.0,
100.0,
0.0,
300000.0;

AirflowNetwork:MultiZone:Surface:Crack,
Bedroom1_TF_L3_pd_Crack,
0.0017806413012263162,
0.66,
RCC1;

AirflowNetwork:MultiZone:ExternalNode,
Bedroom1_TF_L3_pd_extN,
26.45,
L3;

People,
Pensioner2_Bedroom1_TF,
Bedroom1_TF,
Pensioner2_Bedroom1_TF_Presence_,
People,
1,
,
,
0.1,
autocalculate,
Pensioner2_Bedroom1_TF_Metabolism_,
3.82e-08,
No,
ZoneAveraged;

People,
Pensioner1_Bedroom1_TF,
Bedroom1_TF,
Pensioner1_Bedroom1_TF_Presence_,
People,
1,
,
,
0.1,
autocalculate,
Pensioner1_Bedroom1_TF_Metabolism_,
3.82e-08,
No,
ZoneAveraged;

ElectricEquipment,
Bedroom1_TF_Pensioner1_Bedroom1_TF_Appliance_NIST_MOBILEPHONES_NIST_MOBILEPHONES,
Bedroom1_TF,
Pensioner1_Bedroom1_TF_Appliance_NIST_MOBILEPHONES,
EquipmentLevel,
0.0,
,
,
0.16,
0.367,
0.10600000000000001;

ElectricEquipment,
Bedroom1_TF_Pensioner2_Bedroom1_TF_Appliance_NIST_MOBILEPHONES_NIST_MOBILEPHONES,
Bedroom1_TF,
Pensioner2_Bedroom1_TF_Appliance_NIST_MOBILEPHONES,
EquipmentLevel,
0.0,
,
,
0.16,
0.367,
0.10600000000000001;

ZoneControl:Thermostat,
Bedroom1_TF_Thermostat,
Bedroom1_TF,
Heat_CIBSE_Pensioner_Bedroom1_TF_Heating_,
ThermostatSetpoint:SingleHeating,
Bedroom1_TF_stat;

ThermostatSetpoint:SingleHeating,
Bedroom1_TF_stat,
ComfX_Bedroom1_TF_Comfort_;

ZoneHVAC:Baseboard:Convective:Electric,
Bedroom1_TF_heater,
Heat_CIBSE_Pensioner_Bedroom1_TF_Heating_,
4516.099571650404,
1.0;

ZoneHVAC:EquipmentList,
Bedroom1_TF_equiplist,
ZoneHVAC:Baseboard:Convective:Electric,
Bedroom1_TF_heater,
1,
1;

ZoneHVAC:EquipmentConnections,
Bedroom1_TF,
Bedroom1_TF_equiplist,
,
,
Bedroom1_TF_Air,
Bedroom1_TF_Outlet;

Zone,
Bedroom1_MF,
0.0,
0.0,
0.0,
0.0;

AirflowNetwork:MultiZone:Zone,
Bedroom1_MF,
Constant,
,
1.0,
0.0,
100.0,
0.0,
300000.0;

ZoneContaminantSourceAndSink:Generic:DepositionRateSink,
Gas_PM25_test_Bedroom1_MF_DepRate_,
Bedroom1_MF,
5e-05,
Gas_PM25_test_Bedroom1_MF_DepRate_;

BuildingSurface:Detailed,
Bedroom1_MF_Floor,
Floor,
Suspended_Wooden_Floor,
Bedroom1_MF,
Surface,
Unzoned5_Ceiling,
NoSun,
NoWind,
autocalculate,
autocalculate,
2.8,
8.3,
14.4,
6.0,
8.3,
14.4,
6.0,
4.5,
14.4,
2.8,
4.5,
14.4;

AirflowNetwork:MultiZone:Surface,
Bedroom1_MF_Floor,
Bedroom1_MF_Floor_Crack,
,
1.0,
Constant,
,
1.0,
0.0,
100.0,
0.0,
300000.0;

AirflowNetwork:MultiZone:Surface:Crack,
Bedroom1_MF_Floor_Crack,
0.006151306313327275,
0.66,
RCC1;

BuildingSurface:Detailed,
Bedroom1_MF_L1,
Wall,
Single_Brick_Internal_Wall,
Bedroom1_MF,
Surface,
Bedroom2_MF_L3,
NoSun,
NoWind,
autocalculate,
autocalculate,
2.8,
8.3,
16.8,
6.0,
8.3,
16.8,
6.0,
8.3,
14.4,
2.8,
8.3,
14.4;

SurfaceProperty:ConvectionCoefficients,
Bedroom1_MF_L1,
Inside,
Value,
8.29,
,
,
Outside,
Value,
8.29;

SurfaceProperties:VaporCoefficients,
Bedroom1_MF_L1,
Yes,
2e-08,
Yes,
2e-08;

AirflowNetwork:MultiZone:Surface,
Bedroom1_MF_L1,
Bedroom1_MF_L1_Crack,
,
1.0,
Constant,
,
1.0,
0.0,
100.0,
0.0,
300000.0;

AirflowNetwork:MultiZone:Surface:Crack,
Bedroom1_MF_L1_Crack,
0.003885035566311963,
0.66,
RCC1;

BuildingSurface:Detailed,
Bedroom1_MF_L2,
Wall,
CAVITY_RandomU,
Bedroom1_MF,
Outdoors,
,
SunExposed,
WindExposed,
autocalculate,
autocalculate,
6.0,
8.3,
16.7,
6.0,
4.5,
16.7,
6.0,
4.5,
14.5,
6.0,
8.3,
14.5;

SurfaceProperty:ConvectionCoefficients,
Bedroom1_MF_L2,
Inside,
Value,
8.29,
,
,
Outside,
Value,
29.3;

SurfaceProperties:VaporCoefficients,
Bedroom1_MF_L2,
Yes,
6.25e-08,
Yes,
2e-08;

FenestrationSurface:Detailed,
Bedroom1_MF_L2_window,
Window,
Window_RandomU,
Bedroom1_MF_L2,
,
autocalculate,
,
,
,
autocalculate,
6.0,
7.632805743010634,
16.313729640690365,
6.0,
5.1672,
16.3137,
6.0,
5.1672,
14.8862,
6.0,
7.6328,
14.8862;

AirflowNetwork:MultiZone:Surface,
Bedroom1_MF_L2_window,
Bedroom1_MF_L2_window_Opening,
Bedroom1_MF_L2_window_extN,
1.0,
Temperature,
Window_temperatureX_Bedroom1_MF_Window_Temperature_,
1.0,
0.0,
100.0,
0.0,
300000.0,
Window_opening_pensioner_Bedroom1_MF_Window_;

AirflowNetwork:MultiZone:ExternalNode,
Bedroom1_MF_L2_window_extN,
15.599999999999998,
L2;

AirflowNetwork:MultiZone:Component:DetailedOpening,
Bedroom1_MF_L2_window_Opening,
1e-08,
0.66,
HorizontallyPivoted,
0.0,
2,
0.0,
0.6,
0.0,
0.0,
0.0,
1.0,
0.5,
1.0,
0.33333,
0.66666;

BuildingSurface:Detailed,
Bedroom1_MF_L3,
Wall,
CAVITY_RandomU,
Bedroom1_MF,
Outdoors,
,
SunExposed,
WindExposed,
autocalculate,
autocalculate,
6.0,
4.500000000000001,
16.7,
2.8,
4.5,
16.7,
2.8,
4.5,
14.5,
6.0,
4.5,
14.5;

SurfaceProperty:ConvectionCoefficients,
Bedroom1_MF_L3,
Inside,
Value,
8.29,
,
,
Outside,
Value,
29.3;

SurfaceProperties:VaporCoefficients,
Bedroom1_MF_L3,
Yes,
6.25e-08,
Yes,
2e-08;

BuildingSurface:Detailed,
Bedroom1_MF_L4,
Wall,
Single_Brick_Internal_Wall,
Bedroom1_MF,
Surface,
Hall_MF_L2,
NoSun,
NoWind,
autocalculate,
autocalculate,
2.8,
4.500000000000001,
16.8,
2.8,
8.3,
16.8,
2.8,
8.3,
14.4,
2.8,
4.5,
14.4;

SurfaceProperty:ConvectionCoefficients,
Bedroom1_MF_L4,
Inside,
Value,
8.29,
,
,
Outside,
Value,
8.29;

SurfaceProperties:VaporCoefficients,
Bedroom1_MF_L4,
Yes,
2e-08,
Yes,
2e-08;

AirflowNetwork:MultiZone:Surface,
Bedroom1_MF_L4,
Bedroom1_MF_L4_Crack,
,
1.0,
Constant,
,
1.0,
0.0,
100.0,
0.0,
300000.0;

AirflowNetwork:MultiZone:Surface:Crack,
Bedroom1_MF_L4_Crack,
0.004613479734995456,
0.66,
RCC1;

FenestrationSurface:Detailed,
Bedroom1_MF_door_Hall_MF,
Door,
Wooden_Door,
Bedroom1_MF_L4,
Hall_MF_door_Bedroom1_MF,
,
,
,
,
autocalculate,
2.8,
6.000000000000001,
16.4,
2.8,
6.8,
16.4,
2.8,
6.8,
14.4,
2.8,
6.0,
14.4;

AirflowNetwork:MultiZone:Surface,
Bedroom1_MF_door_Hall_MF,
Bedroom1_MF_door_Hall_MF_Opening,
,
1.0,
Constant,
,
1.0,
0.0,
100.0,
0.0,
300000.0,
Doors_AWESOME_Bedroom1_MF_Door_Hall_MF;

AirflowNetwork:MultiZone:Component:DetailedOpening,
Bedroom1_MF_door_Hall_MF_Opening,
0.009,
0.5,
NonPivoted,
0.0,
2,
0.0,
0.001,
0.0,
0.0,
0.0,
1.0,
0.78,
1.0,
1.0,
0.0;

BuildingSurface:Detailed,
Bedroom1_MF_Ceiling,
Ceiling,
Suspended_Wooden_Ceiling,
Bedroom1_MF,
Surface,
Unzoned7_Floor,
NoSun,
NoWind,
autocalculate,
autocalculate,
2.8,
8.3,
16.8,
2.8,
4.5,
16.8,
6.0,
4.5,
16.8,
6.0,
8.3,
16.8;

AirflowNetwork:MultiZone:Surface,
Bedroom1_MF_Ceiling,
Bedroom1_MF_Ceiling_Crack,
,
1.0,
Constant,
,
1.0,
0.0,
100.0,
0.0,
300000.0;

AirflowNetwork:MultiZone:Surface:Crack,
Bedroom1_MF_Ceiling_Crack,
0.006151306313327275,
0.66,
RCC1;

BuildingSurface:Detailed,
Bedroom1_MF_L2_pu,
Wall,
CAVITY_RandomU,
Bedroom1_MF,
Outdoors,
,
SunExposed,
WindExposed,
autocalculate,
autocalculate,
6.0,
8.3,
16.8,
6.0,
4.5,
16.8,
6.0,
4.5,
16.7,
6.0,
8.3,
16.7;

SurfaceProperty:ConvectionCoefficients,
Bedroom1_MF_L2_pu,
Inside,
Value,
8.29,
,
,
Outside,
Value,
29.3;

SurfaceProperties:VaporCoefficients,
Bedroom1_MF_L2_pu,
Yes,
6.25e-08,
Yes,
2e-08;

AirflowNetwork:MultiZone:Surface,
Bedroom1_MF_L2_pu,
Bedroom1_MF_L2_pu_Crack,
Bedroom1_MF_L2_pu_extN,
1.0,
Constant,
,
1.0,
0.0,
100.0,
0.0,
300000.0;

AirflowNetwork:MultiZone:Surface:Crack,
Bedroom1_MF_L2_pu_Crack,
0.0021145115452062507,
0.66,
RCC1;

AirflowNetwork:MultiZone:ExternalNode,
Bedroom1_MF_L2_pu_extN,
16.75,
L2;

BuildingSurface:Detailed,
Bedroom1_MF_L2_pd,
Wall,
CAVITY_RandomU,
Bedroom1_MF,
Outdoors,
,
SunExposed,
WindExposed,
autocalculate,
autocalculate,
6.0,
8.3,
14.5,
6.0,
4.5,
14.5,
6.0,
4.5,
14.4,
6.0,
8.3,
14.4;

SurfaceProperty:ConvectionCoefficients,
Bedroom1_MF_L2_pd,
Inside,
Value,
8.29,
,
,
Outside,
Value,
29.3;

SurfaceProperties:VaporCoefficients,
Bedroom1_MF_L2_pd,
Yes,
6.25e-08,
Yes,
2e-08;

AirflowNetwork:MultiZone:Surface,
Bedroom1_MF_L2_pd,
Bedroom1_MF_L2_pd_Crack,
Bedroom1_MF_L2_pd_extN,
1.0,
Constant,
,
1.0,
0.0,
100.0,
0.0,
300000.0;

AirflowNetwork:MultiZone:Surface:Crack,
Bedroom1_MF_L2_pd_Crack,
0.0021145115452062507,
0.66,
RCC1;

AirflowNetwork:MultiZone:ExternalNode,
Bedroom1_MF_L2_pd_extN,
14.45,
L2;

BuildingSurface:Detailed,
Bedroom1_MF_L3_pu,
Wall,
CAVITY_RandomU,
Bedroom1_MF,
Outdoors,
,
SunExposed,
WindExposed,
autocalculate,
autocalculate,
6.0,
4.500000000000001,
16.8,
2.8,
4.5,
16.8,
2.8,
4.5,
16.7,
6.0,
4.5,
16.7;

SurfaceProperty:ConvectionCoefficients,
Bedroom1_MF_L3_pu,
Inside,
Value,
8.29,
,
,
Outside,
Value,
29.3;

SurfaceProperties:VaporCoefficients,
Bedroom1_MF_L3_pu,
Yes,
6.25e-08,
Yes,
2e-08;

AirflowNetwork:MultiZone:Surface,
Bedroom1_MF_L3_pu,
Bedroom1_MF_L3_pu_Crack,
Bedroom1_MF_L3_pu_extN,
1.0,
Constant,
,
1.0,
0.0,
100.0,
0.0,
300000.0;

AirflowNetwork:MultiZone:Surface:Crack,
Bedroom1_MF_L3_pu_Crack,
0.0017806413012263162,
0.66,
RCC1;

AirflowNetwork:MultiZone:ExternalNode,
Bedroom1_MF_L3_pu_extN,
16.75,
L3;

BuildingSurface:Detailed,
Bedroom1_MF_L3_pd,
Wall,
CAVITY_RandomU,
Bedroom1_MF,
Outdoors,
,
SunExposed,
WindExposed,
autocalculate,
autocalculate,
6.0,
4.500000000000001,
14.5,
2.8,
4.5,
14.5,
2.8,
4.5,
14.4,
6.0,
4.5,
14.4;

SurfaceProperty:ConvectionCoefficients,
Bedroom1_MF_L3_pd,
Inside,
Value,
8.29,
,
,
Outside,
Value,
29.3;

SurfaceProperties:VaporCoefficients,
Bedroom1_MF_L3_pd,
Yes,
6.25e-08,
Yes,
2e-08;

AirflowNetwork:MultiZone:Surface,
Bedroom1_MF_L3_pd,
Bedroom1_MF_L3_pd_Crack,
Bedroom1_MF_L3_pd_extN,
1.0,
Constant,
,
1.0,
0.0,
100.0,
0.0,
300000.0;

AirflowNetwork:MultiZone:Surface:Crack,
Bedroom1_MF_L3_pd_Crack,
0.0017806413012263162,
0.66,
RCC1;

AirflowNetwork:MultiZone:ExternalNode,
Bedroom1_MF_L3_pd_extN,
14.45,
L3;

People,
Pensioner1_Bedroom1_MF,
Bedroom1_MF,
Pensioner1_Bedroom1_MF_Presence_,
People,
1,
,
,
0.1,
autocalculate,
Pensioner1_Bedroom1_MF_Metabolism_,
3.82e-08,
No,
ZoneAveraged;

People,
Pensioner2_Bedroom1_MF,
Bedroom1_MF,
Pensioner2_Bedroom1_MF_Presence_,
People,
1,
,
,
0.1,
autocalculate,
Pensioner2_Bedroom1_MF_Metabolism_,
3.82e-08,
No,
ZoneAveraged;

ElectricEquipment,
Bedroom1_MF_Pensioner1_Bedroom1_MF_Appliance_NIST_MOBILEPHONES_NIST_MOBILEPHONES,
Bedroom1_MF,
Pensioner1_Bedroom1_MF_Appliance_NIST_MOBILEPHONES,
EquipmentLevel,
0.0,
,
,
0.16,
0.367,
0.10600000000000001;

ElectricEquipment,
Bedroom1_MF_Pensioner2_Bedroom1_MF_Appliance_NIST_MOBILEPHONES_NIST_MOBILEPHONES,
Bedroom1_MF,
Pensioner2_Bedroom1_MF_Appliance_NIST_MOBILEPHONES,
EquipmentLevel,
0.0,
,
,
0.16,
0.367,
0.10600000000000001;

ZoneControl:Thermostat,
Bedroom1_MF_Thermostat,
Bedroom1_MF,
Heat_CIBSE_Pensioner_Bedroom1_MF_Heating_,
ThermostatSetpoint:SingleHeating,
Bedroom1_MF_stat;

ThermostatSetpoint:SingleHeating,
Bedroom1_MF_stat,
ComfX_Bedroom1_MF_Comfort_;

ZoneHVAC:Baseboard:Convective:Electric,
Bedroom1_MF_heater,
Heat_CIBSE_Pensioner_Bedroom1_MF_Heating_,
4516.099571650404,
1.0;

ZoneHVAC:EquipmentList,
Bedroom1_MF_equiplist,
ZoneHVAC:Baseboard:Convective:Electric,
Bedroom1_MF_heater,
1,
1;

ZoneHVAC:EquipmentConnections,
Bedroom1_MF,
Bedroom1_MF_equiplist,
,
,
Bedroom1_MF_Air,
Bedroom1_MF_Outlet;

Zone,
Shaft,
0.0,
0.0,
0.0,
0.0;

AirflowNetwork:MultiZone:Zone,
Shaft,
Constant,
,
1.0,
0.0,
100.0,
0.0,
300000.0;

ZoneContaminantSourceAndSink:Generic:DepositionRateSink,
Gas_PM25_test_Shaft_DepRate_,
Shaft,
5e-05,
Gas_PM25_test_Shaft_DepRate_;

BuildingSurface:Detailed,
Shaft_Floor,
Floor,
Suspended_Wooden_Floor,
Shaft,
Surface,
Cellar+_Ceiling,
NoSun,
NoWind,
autocalculate,
autocalculate,
-1.3,
13.5,
0.0,
0.0,
13.5,
0.0,
0.0,
6.6,
0.0,
-1.3,
6.6,
0.0;

BuildingSurface:Detailed,
Shaft_L1,
Wall,
CAVITY_RandomU,
Shaft,
Adiabatic,
Shaft_L1,
NoSun,
NoWind,
autocalculate,
autocalculate,
-1.3,
13.5,
28.8,
1.8,
13.5,
28.8,
1.8,
13.5,
0.0,
-1.3,
13.5,
0.0;

SurfaceProperty:ConvectionCoefficients,
Shaft_L1,
Inside,
Value,
8.29,
,
,
Outside,
Value,
29.3;

SurfaceProperties:VaporCoefficients,
Shaft_L1,
Yes,
6.25e-08,
Yes,
2e-08;

BuildingSurface:Detailed,
Shaft_L3,
Wall,
Single_Brick_Internal_Wall,
Shaft,
Surface,
Bath1_GF+_L1,
NoSun,
NoWind,
autocalculate,
autocalculate,
1.8,
6.6,
2.4,
0.0,
6.6,
2.4,
0.0,
6.6,
0.0,
1.8,
6.6,
0.0;

SurfaceProperty:ConvectionCoefficients,
Shaft_L3,
Inside,
Value,
8.29,
,
,
Outside,
Value,
8.29;

SurfaceProperties:VaporCoefficients,
Shaft_L3,
Yes,
2e-08,
Yes,
2e-08;

BuildingSurface:Detailed,
Shaft_L4,
Wall,
CAVITY_RandomU,
Shaft,
Adiabatic,
Shaft_L4,
NoSun,
NoWind,
autocalculate,
autocalculate,
-1.3,
6.6,
28.8,
-1.3,
13.5,
28.8,
-1.3,
13.5,
0.0,
-1.3,
6.6,
0.0;

SurfaceProperty:ConvectionCoefficients,
Shaft_L4,
Inside,
Value,
8.29,
,
,
Outside,
Value,
29.3;

SurfaceProperties:VaporCoefficients,
Shaft_L4,
Yes,
6.25e-08,
Yes,
2e-08;

BuildingSurface:Detailed,
Shaft_Ceiling,
Ceiling,
LoftCeiling_RandomU,
Shaft,
Surface,
Loft_Floor,
NoSun,
NoWind,
autocalculate,
autocalculate,
0.0,
13.5,
28.8,
0.0,
6.6,
28.8,
1.8,
6.6,
28.8,
1.8,
13.5,
28.8;

SurfaceProperty:ConvectionCoefficients,
Shaft_Ceiling,
Inside,
Value,
8.29,
,
,
Outside,
Value,
8.29;

BuildingSurface:Detailed,
Shaft_Floor_qc100,
Floor,
Suspended_Wooden_Floor,
Shaft,
Surface,
Cellar_Ceiling_qc010_qc010,
NoSun,
NoWind,
autocalculate,
autocalculate,
0.0,
13.5,
0.0,
1.8,
13.5,
0.0,
1.8,
6.6,
0.0,
0.0,
6.6,
0.0;

BuildingSurface:Detailed,
Shaft_L2_qa001,
Wall,
Single_Brick_Internal_Wall,
Shaft,
Surface,
Unzoned1_L4_qc010,
NoSun,
NoWind,
autocalculate,
autocalculate,
1.8,
11.0,
4.8,
1.8,
6.6,
4.8,
1.8,
6.6,
2.4,
1.8,
11.0,
2.4;

SurfaceProperty:ConvectionCoefficients,
Shaft_L2_qa001,
Inside,
Value,
8.29,
,
,
Outside,
Value,
8.29;

SurfaceProperties:VaporCoefficients,
Shaft_L2_qa001,
Yes,
2e-08,
Yes,
2e-08;

AirflowNetwork:MultiZone:Surface,
Shaft_L2_qa001,
Shaft_L2_qa001_Crack,
,
1.0,
Constant,
,
1.0,
0.0,
100.0,
0.0,
300000.0;
