Version,
8.1.0.009;

SimulationControl,
No,
No,
No,
Yes,
Yes;

Building,
Mid-Terrace,
0.0,
Urban,
0.04,
0.4,
FullExterior,
25,
6;

SurfaceConvectionAlgorithm:Inside,
TARP;

SurfaceConvectionAlgorithm:Outside,
TARP;

HeatBalanceAlgorithm,
ConductionTransferFunction,
200;

Timestep,
6;

RunPeriod,
,
1,
1,
12,
31,
Monday,
Yes,
Yes,
No,
Yes,
Yes,
1;

Site:GroundTemperature:BuildingSurface,
8.3,
6.4,
5.8,
6.3,
8.9,
11.7,
14.4,
16.4,
17,
16.1,
13.8,
11;

ScheduleTypeLimits,
Control,
0,
4,
Discrete,
Control;

ScheduleTypeLimits,
Thermal,
-20.0,
60.0,
Continuous,
Temperature;

ScheduleTypeLimits,
Fraction,
0.0,
10.0,
Continuous,
Dimensionless;

ScheduleTypeLimits,
Number,
0.0,
1000000000.0,
Continuous,
Dimensionless;

Material,
Gypsum_0.1,
Rough,
0.1,
0.2,
850,
850,
0.9,
0.6,
0.7;

Material,
AirGap_0.1,
Rough,
0.1,
0.02485,
1.204,
1004,
0.9,
0.7,
0.7;

Material,
Spruce_0.04,
Rough,
0.04,
0.09,
455,
1500,
0.9,
0.7,
0.7;

Material,
Concrete_0.04,
Rough,
0.04,
1.6,
2300,
850,
0.9,
0.7,
0.7;

Material,
Brick_0.11,
Rough,
0.11,
0.6,
1712,
850,
0.9,
0.7,
0.7;

Material,
GlassFiberFloor_0.0065,
Rough,
0.006499999986350003,
0.04,
80,
840,
0.9,
0.7,
0.7;

Material,
Concrete_0.01,
Rough,
0.01,
1.6,
2300,
850,
0.9,
0.7,
0.7;

Material,
Spruce_0.05,
Rough,
0.05,
0.09,
455,
1500,
0.9,
0.7,
0.7;

Material,
Brick_0.1,
Rough,
0.1,
0.6,
1712,
850,
0.9,
0.7,
0.7;

Material,
CelluloseInsExt_0.1,
Rough,
0.11780972181624311,
0.04,
55,
1880,
0.9,
0.7,
0.7;

Material,
Spruce_0.0125,
Rough,
0.0125,
0.09,
455,
1500,
0.9,
0.7,
0.7;

Material,
AirGapRoof_0.0001,
Rough,
0.15482229036824824,
0.02485,
1.204,
1004,
0.9,
0.7,
0.7;

Material,
Gypsum_0.01,
Rough,
0.01,
0.2,
850,
850,
0.9,
0.6,
0.7;

Material,
Concrete_0.5,
Rough,
0.5,
1.6,
2300,
850,
0.9,
0.7,
0.7;

WindowMaterial:Glazing,
Glass_0.01,
SpectralAverage,
,
0.01,
0.775,
0.071,
0.071,
0.881,
0.08,
0.08,
0.0,
0.84,
0.84,
0.9;

WindowMaterial:Gas,
GasWin_0.01,
Air,
0.008027067456118803;

WindowMaterial:Shade,
Drapes_0.004,
0.05,
0.3,
0.05,
0.3,
0.9,
0.0,
0.004,
0.1,
0.05,
1.0,
1.0,
0.0,
0.0,
0.0;

Construction,
Single_Brick_Internal_Wall,
Gypsum_0.01,
Brick_0.1,
Gypsum_0.01;

Construction,
Wooden_Door,
Spruce_0.04;

Construction,
Curtains,
Glass_0.01,
GasWin_0.01,
Glass_0.01,
Drapes_0.004;

Construction,
LoftFloor_RandomU,
Concrete_0.01,
Spruce_0.0125,
AirGapRoof_0.0001,
Gypsum_0.01;

Construction,
3.10_Roof,
Concrete_0.04,
Gypsum_0.01;

Construction,
FLOOR_RandomU,
Concrete_0.5,
GlassFiberFloor_0.0065,
Gypsum_0.1;

Construction,
Window_RandomU,
Glass_0.01,
GasWin_0.01,
Glass_0.01;

Construction,
Suspended_Wooden_Ceiling,
Spruce_0.05,
AirGap_0.1,
Gypsum_0.01;

Construction,
LoftCeiling_RandomU,
Gypsum_0.01,
AirGapRoof_0.0001,
Spruce_0.0125,
Concrete_0.01;

Construction,
Suspended_Wooden_Floor,
Gypsum_0.01,
AirGap_0.1,
Spruce_0.05;

Construction,
SOLID_BRICK_RandomU,
Brick_0.11,
CelluloseInsExt_0.1,
Gypsum_0.01;

AirflowNetwork:SimulationControl,
AF1,
MultiZoneWithoutDistribution,
Input,
WParray,
ExternalNode,
LowRise,
500,
ZeroNodePressures,
0.0001,
1.E-6,
-0.5,
0,
1;

AirflowNetwork:MultiZone:ReferenceCrackConditions,
RCC1,
20,
101325,
0;

AirflowNetwork:MultiZone:WindPressureCoefficientArray,
WParray,
0.0,
30.0,
60.0,
90.0,
120.0,
150.0,
180.0,
210.0,
240.0,
270.0,
300.0,
330.0,
360.0;

AirflowNetwork:MultiZone:WindPressureCoefficientValues,
Floor,
WParray,
0,
0,
0,
0,
0,
0,
0,
0,
0,
0,
0,
0,
0;

AirflowNetwork:MultiZone:WindPressureCoefficientValues,
Ceiling,
WParray,
0,
0,
0,
0,
0,
0,
0,
0,
0,
0,
0,
0,
0;

AirflowNetwork:MultiZone:WindPressureCoefficientValues,
L1,
WParray,
0.603,
0.48,
0.183,
-0.34,
-0.632,
-0.37,
-0.452,
-0.37,
-0.632,
-0.34,
0.183,
0.48,
0.603;

AirflowNetwork:MultiZone:WindPressureCoefficientValues,
L3,
WParray,
-0.452,
-0.37,
-0.632,
-0.34,
0.183,
0.48,
0.603,
0.48,
0.183,
-0.34,
-0.632,
-0.37,
-0.452;

AirflowNetwork:MultiZone:WindPressureCoefficientValues,
L4,
WParray,
-0.34,
-0.632,
-0.37,
-0.452,
-0.37,
-0.632,
-0.34,
0.183,
0.48,
0.603,
0.603,
0.48,
0.183;

AirflowNetwork:MultiZone:WindPressureCoefficientValues,
L2,
WParray,
-0.34,
0.183,
0.48,
0.603,
0.603,
0.48,
0.183,
-0.34,
-0.632,
-0.37,
-0.452,
-0.37,
-0.632;

ZoneAirContaminantBalance,
No,
,
Yes,
Gas_PM25_test_Outside_Contaminant_;

GlobalGeometryRules,
UpperLeftCorner,
CounterClockwise,
Relative;

Shading:Building:Detailed,
Row2_0,
,
4,
-50.0,
-15.0,
0.0,
-50.0,
-15.0,
4.8,
50.0,
-15.0,
4.8,
50.0,
-15.0,
0.0;

Shading:Building:Detailed,
Row2_1,
,
4,
50.0,
-15.0,
0.0,
50.0,
-15.0,
4.8,
50.0,
-25.0,
4.8,
50.0,
-25.0,
0.0;

Shading:Building:Detailed,
Row2_2,
,
4,
50.0,
-25.0,
0.0,
50.0,
-25.0,
4.8,
-50.0,
-25.0,
4.8,
-50.0,
-25.0,
0.0;

Shading:Building:Detailed,
Row2_3,
,
4,
-50.0,
-25.0,
0.0,
-50.0,
-25.0,
4.8,
-50.0,
-15.0,
4.8,
-50.0,
-15.0,
0.0;

Shading:Building:Detailed,
House2_0,
,
4,
0.0,
2.15,
0.0,
0.0,
2.15,
4.8,
-2.05,
2.15,
4.8,
-2.05,
2.15,
0.0;

Shading:Building:Detailed,
House2_1,
,
4,
-2.05,
2.15,
0.0,
-2.05,
2.15,
4.8,
-2.05,
0.0,
4.8,
-2.05,
0.0,
0.0;

Shading:Building:Detailed,
House2_2,
,
4,
-2.05,
0.0,
0.0,
-2.05,
0.0,
4.8,
0.0,
0.0,
4.8,
0.0,
0.0,
0.0;

Shading:Building:Detailed,
House2_3,
,
4,
0.0,
0.0,
0.0,
0.0,
0.0,
4.8,
0.0,
2.15,
4.8,
0.0,
2.15,
0.0;

Shading:Building:Detailed,
House2_4,
,
4,
-2.05,
3.4,
0.0,
-2.05,
3.4,
4.8,
-6.0,
3.4,
4.8,
-6.0,
3.4,
0.0;

Shading:Building:Detailed,
House2_5,
,
4,
-6.0,
3.4,
0.0,
-6.0,
3.4,
4.8,
-6.0,
2.15,
4.8,
-6.0,
2.15,
0.0;

Shading:Building:Detailed,
House2_6,
,
4,
-6.0,
2.15,
0.0,
-6.0,
2.15,
4.8,
-2.05,
2.15,
4.8,
-2.05,
2.15,
0.0;

Shading:Building:Detailed,
House2_7,
,
4,
-2.05,
2.15,
0.0,
-2.05,
2.15,
4.8,
-2.05,
3.4,
4.8,
-2.05,
3.4,
0.0;

Shading:Building:Detailed,
House2_8,
,
4,
0.0,
4.3,
0.0,
0.0,
4.3,
4.8,
-1.025,
4.3,
4.8,
-1.025,
4.3,
0.0;

Shading:Building:Detailed,
House2_9,
,
4,
-1.025,
4.3,
0.0,
-1.025,
4.3,
4.8,
-1.025,
2.15,
4.8,
-1.025,
2.15,
0.0;

Shading:Building:Detailed,
House2_10,
,
4,
-1.025,
2.15,
0.0,
-1.025,
2.15,
4.8,
0.0,
2.15,
4.8,
0.0,
2.15,
0.0;

Shading:Building:Detailed,
House2_11,
,
4,
0.0,
2.15,
0.0,
0.0,
2.15,
4.8,
0.0,
4.3,
4.8,
0.0,
4.3,
0.0;

Shading:Building:Detailed,
House2_12,
,
4,
-2.05,
2.15,
0.0,
-2.05,
2.15,
4.8,
-6.0,
2.15,
4.8,
-6.0,
2.15,
0.0;

Shading:Building:Detailed,
House2_13,
,
4,
-6.0,
2.15,
0.0,
-6.0,
2.15,
4.8,
-6.0,
0.0,
4.8,
-6.0,
0.0,
0.0;

Shading:Building:Detailed,
House2_14,
,
4,
-6.0,
0.0,
0.0,
-6.0,
0.0,
4.8,
-2.05,
0.0,
4.8,
-2.05,
0.0,
0.0;

Shading:Building:Detailed,
House2_15,
,
4,
-2.05,
0.0,
0.0,
-2.05,
0.0,
4.8,
-2.05,
2.15,
4.8,
-2.05,
2.15,
0.0;

Shading:Building:Detailed,
House2_16,
,
4,
-3.2,
7.5,
0.0,
-3.2,
7.5,
4.8,
-6.0,
7.5,
4.8,
-6.0,
7.5,
0.0;

Shading:Building:Detailed,
House2_17,
,
4,
-6.0,
7.5,
0.0,
-6.0,
7.5,
4.8,
-6.0,
3.4,
4.8,
-6.0,
3.4,
0.0;

Shading:Building:Detailed,
House2_18,
,
4,
-6.0,
3.4,
0.0,
-6.0,
3.4,
4.8,
-3.2,
3.4,
4.8,
-3.2,
3.4,
0.0;

Shading:Building:Detailed,
House2_19,
,
4,
-3.2,
3.4,
0.0,
-3.2,
3.4,
4.8,
-3.2,
7.5,
4.8,
-3.2,
7.5,
0.0;

Shading:Building:Detailed,
House2_20,
,
4,
-1.025,
7.5,
0.0,
-1.025,
7.5,
4.8,
-2.05,
7.5,
4.8,
-2.05,
7.5,
0.0;

Shading:Building:Detailed,
House2_21,
,
4,
-2.05,
7.5,
0.0,
-2.05,
7.5,
4.8,
-2.05,
4.3,
4.8,
-2.05,
4.3,
0.0;

Shading:Building:Detailed,
House2_22,
,
4,
-2.05,
4.3,
0.0,
-2.05,
4.3,
4.8,
-1.025,
4.3,
4.8,
-1.025,
4.3,
0.0;

Shading:Building:Detailed,
House2_23,
,
4,
-1.025,
4.3,
0.0,
-1.025,
4.3,
4.8,
-1.025,
7.5,
4.8,
-1.025,
7.5,
0.0;

Shading:Building:Detailed,
House2_24,
,
4,
0.0,
7.5,
0.0,
0.0,
7.5,
4.8,
-1.025,
7.5,
4.8,
-1.025,
7.5,
0.0;

Shading:Building:Detailed,
House2_25,
,
4,
-1.025,
7.5,
0.0,
-1.025,
7.5,
4.8,
-1.025,
4.3,
4.8,
-1.025,
4.3,
0.0;

Shading:Building:Detailed,
House2_26,
,
4,
-1.025,
4.3,
0.0,
-1.025,
4.3,
4.8,
0.0,
4.3,
4.8,
0.0,
4.3,
0.0;

Shading:Building:Detailed,
House2_27,
,
4,
0.0,
4.3,
0.0,
0.0,
4.3,
4.8,
0.0,
7.5,
4.8,
0.0,
7.5,
0.0;

Shading:Building:Detailed,
House2_28,
,
4,
-1.025,
3.4,
0.0,
-1.025,
3.4,
4.8,
-2.05,
3.4,
4.8,
-2.05,
3.4,
0.0;

Shading:Building:Detailed,
House2_29,
,
4,
-2.05,
3.4,
0.0,
-2.05,
3.4,
4.8,
-2.05,
2.15,
4.8,
-2.05,
2.15,
0.0;

Shading:Building:Detailed,
House2_30,
,
4,
-2.05,
2.15,
0.0,
-2.05,
2.15,
4.8,
-1.025,
2.15,
4.8,
-1.025,
2.15,
0.0;

Shading:Building:Detailed,
House2_31,
,
4,
-1.025,
2.15,
0.0,
-1.025,
2.15,
4.8,
-1.025,
3.4,
4.8,
-1.025,
3.4,
0.0;

Shading:Building:Detailed,
House2_32,
,
4,
-2.05,
7.5,
0.0,
-2.05,
7.5,
4.8,
-3.2,
7.5,
4.8,
-3.2,
7.5,
0.0;

Shading:Building:Detailed,
House2_33,
,
4,
-3.2,
7.5,
0.0,
-3.2,
7.5,
4.8,
-3.2,
4.3,
4.8,
-3.2,
4.3,
0.0;

Shading:Building:Detailed,
House2_34,
,
4,
-3.2,
4.3,
0.0,
-3.2,
4.3,
4.8,
-2.05,
4.3,
4.8,
-2.05,
4.3,
0.0;

Shading:Building:Detailed,
House2_35,
,
4,
-2.05,
4.3,
0.0,
-2.05,
4.3,
4.8,
-2.05,
7.5,
4.8,
-2.05,
7.5,
0.0;

Shading:Building:Detailed,
House2_36,
,
4,
-1.025,
4.3,
0.0,
-1.025,
4.3,
4.8,
-2.05,
4.3,
4.8,
-2.05,
4.3,
0.0;

Shading:Building:Detailed,
House2_37,
,
4,
-2.05,
4.3,
0.0,
-2.05,
4.3,
4.8,
-2.05,
3.4,
4.8,
-2.05,
3.4,
0.0;

Shading:Building:Detailed,
House2_38,
,
4,
-2.05,
3.4,
0.0,
-2.05,
3.4,
4.8,
-1.025,
3.4,
4.8,
-1.025,
3.4,
0.0;

Shading:Building:Detailed,
House2_39,
,
4,
-1.025,
3.4,
0.0,
-1.025,
3.4,
4.8,
-1.025,
4.3,
4.8,
-1.025,
4.3,
0.0;

Shading:Building:Detailed,
House2_40,
,
4,
-2.05,
4.3,
0.0,
-2.05,
4.3,
4.8,
-3.2,
4.3,
4.8,
-3.2,
4.3,
0.0;

Shading:Building:Detailed,
House2_41,
,
4,
-3.2,
4.3,
0.0,
-3.2,
4.3,
4.8,
-3.2,
3.4,
4.8,
-3.2,
3.4,
0.0;

Shading:Building:Detailed,
House2_42,
,
4,
-3.2,
3.4,
0.0,
-3.2,
3.4,
4.8,
-2.05,
3.4,
4.8,
-2.05,
3.4,
0.0;

Shading:Building:Detailed,
House2_43,
,
4,
-2.05,
3.4,
0.0,
-2.05,
3.4,
4.8,
-2.05,
4.3,
4.8,
-2.05,
4.3,
0.0;

Shading:Building:Detailed,
House2_RoofShade_0,
,
4,
0.0,
3.75,
6.8,
-6.0,
3.75,
6.8,
-6.0,
7.5,
4.8,
0.0,
7.5,
4.8;

Shading:Building:Detailed,
House2_RoofShade_1,
,
4,
-6.0,
3.75,
6.8,
0.0,
3.75,
6.8,
0.0,
0.0,
4.8,
-6.0,
0.0,
4.8;

Shading:Building:Detailed,
Row1_0,
,
4,
-50.0,
33.0,
0.0,
-50.0,
33.0,
4.8,
50.0,
33.0,
4.8,
50.0,
33.0,
0.0;

Shading:Building:Detailed,
Row1_1,
,
4,
50.0,
33.0,
0.0,
50.0,
33.0,
4.8,
50.0,
23.0,
4.8,
50.0,
23.0,
0.0;

Shading:Building:Detailed,
Row1_2,
,
4,
50.0,
23.0,
0.0,
50.0,
23.0,
4.8,
-50.0,
23.0,
4.8,
-50.0,
23.0,
0.0;

Shading:Building:Detailed,
Row1_3,
,
4,
-50.0,
23.0,
0.0,
-50.0,
23.0,
4.8,
-50.0,
33.0,
4.8,
-50.0,
33.0,
0.0;

Shading:Building:Detailed,
House1_0,
,
4,
12.0,
2.15,
0.0,
12.0,
2.15,
4.8,
9.95,
2.15,
4.8,
9.95,
2.15,
0.0;

Shading:Building:Detailed,
House1_1,
,
4,
9.95,
2.15,
0.0,
9.95,
2.15,
4.8,
9.95,
0.0,
4.8,
9.95,
0.0,
0.0;

Shading:Building:Detailed,
House1_2,
,
4,
9.95,
0.0,
0.0,
9.95,
0.0,
4.8,
12.0,
0.0,
4.8,
12.0,
0.0,
0.0;

Shading:Building:Detailed,
House1_3,
,
4,
12.0,
0.0,
0.0,
12.0,
0.0,
4.8,
12.0,
2.15,
4.8,
12.0,
2.15,
0.0;

Shading:Building:Detailed,
House1_4,
,
4,
9.95,
3.4,
0.0,
9.95,
3.4,
4.8,
6.0,
3.4,
4.8,
6.0,
3.4,
0.0;

Shading:Building:Detailed,
House1_5,
,
4,
6.0,
3.4,
0.0,
6.0,
3.4,
4.8,
6.0,
2.15,
4.8,
6.0,
2.15,
0.0;

Shading:Building:Detailed,
House1_6,
,
4,
6.0,
2.15,
0.0,
6.0,
2.15,
4.8,
9.95,
2.15,
4.8,
9.95,
2.15,
0.0;

Shading:Building:Detailed,
House1_7,
,
4,
9.95,
2.15,
0.0,
9.95,
2.15,
4.8,
9.95,
3.4,
4.8,
9.95,
3.4,
0.0;

Shading:Building:Detailed,
House1_8,
,
4,
12.0,
4.3,
0.0,
12.0,
4.3,
4.8,
10.975,
4.3,
4.8,
10.975,
4.3,
0.0;

Shading:Building:Detailed,
House1_9,
,
4,
10.975,
4.3,
0.0,
10.975,
4.3,
4.8,
10.975,
2.15,
4.8,
10.975,
2.15,
0.0;

Shading:Building:Detailed,
House1_10,
,
4,
10.975,
2.15,
0.0,
10.975,
2.15,
4.8,
12.0,
2.15,
4.8,
12.0,
2.15,
0.0;

Shading:Building:Detailed,
House1_11,
,
4,
12.0,
2.15,
0.0,
12.0,
2.15,
4.8,
12.0,
4.3,
4.8,
12.0,
4.3,
0.0;

Shading:Building:Detailed,
House1_12,
,
4,
9.95,
2.15,
0.0,
9.95,
2.15,
4.8,
6.0,
2.15,
4.8,
6.0,
2.15,
0.0;

Shading:Building:Detailed,
House1_13,
,
4,
6.0,
2.15,
0.0,
6.0,
2.15,
4.8,
6.0,
0.0,
4.8,
6.0,
0.0,
0.0;

Shading:Building:Detailed,
House1_14,
,
4,
6.0,
0.0,
0.0,
6.0,
0.0,
4.8,
9.95,
0.0,
4.8,
9.95,
0.0,
0.0;

Shading:Building:Detailed,
House1_15,
,
4,
9.95,
0.0,
0.0,
9.95,
0.0,
4.8,
9.95,
2.15,
4.8,
9.95,
2.15,
0.0;

Shading:Building:Detailed,
House1_16,
,
4,
8.8,
7.5,
0.0,
8.8,
7.5,
4.8,
6.0,
7.5,
4.8,
6.0,
7.5,
0.0;

Shading:Building:Detailed,
House1_17,
,
4,
6.0,
7.5,
0.0,
6.0,
7.5,
4.8,
6.0,
3.4,
4.8,
6.0,
3.4,
0.0;

Shading:Building:Detailed,
House1_18,
,
4,
6.0,
3.4,
0.0,
6.0,
3.4,
4.8,
8.8,
3.4,
4.8,
8.8,
3.4,
0.0;

Shading:Building:Detailed,
House1_19,
,
4,
8.8,
3.4,
0.0,
8.8,
3.4,
4.8,
8.8,
7.5,
4.8,
8.8,
7.5,
0.0;

Shading:Building:Detailed,
House1_20,
,
4,
10.975,
7.5,
0.0,
10.975,
7.5,
4.8,
9.95,
7.5,
4.8,
9.95,
7.5,
0.0;

Shading:Building:Detailed,
House1_21,
,
4,
9.95,
7.5,
0.0,
9.95,
7.5,
4.8,
9.95,
4.3,
4.8,
9.95,
4.3,
0.0;

Shading:Building:Detailed,
House1_22,
,
4,
9.95,
4.3,
0.0,
9.95,
4.3,
4.8,
10.975,
4.3,
4.8,
10.975,
4.3,
0.0;

Shading:Building:Detailed,
House1_23,
,
4,
10.975,
4.3,
0.0,
10.975,
4.3,
4.8,
10.975,
7.5,
4.8,
10.975,
7.5,
0.0;

Shading:Building:Detailed,
House1_24,
,
4,
12.0,
7.5,
0.0,
12.0,
7.5,
4.8,
10.975,
7.5,
4.8,
10.975,
7.5,
0.0;

Shading:Building:Detailed,
House1_25,
,
4,
10.975,
7.5,
0.0,
10.975,
7.5,
4.8,
10.975,
4.3,
4.8,
10.975,
4.3,
0.0;

Shading:Building:Detailed,
House1_26,
,
4,
10.975,
4.3,
0.0,
10.975,
4.3,
4.8,
12.0,
4.3,
4.8,
12.0,
4.3,
0.0;

Shading:Building:Detailed,
House1_27,
,
4,
12.0,
4.3,
0.0,
12.0,
4.3,
4.8,
12.0,
7.5,
4.8,
12.0,
7.5,
0.0;

Shading:Building:Detailed,
House1_28,
,
4,
10.975,
3.4,
0.0,
10.975,
3.4,
4.8,
9.95,
3.4,
4.8,
9.95,
3.4,
0.0;

Shading:Building:Detailed,
House1_29,
,
4,
9.95,
3.4,
0.0,
9.95,
3.4,
4.8,
9.95,
2.15,
4.8,
9.95,
2.15,
0.0;

Shading:Building:Detailed,
House1_30,
,
4,
9.95,
2.15,
0.0,
9.95,
2.15,
4.8,
10.975,
2.15,
4.8,
10.975,
2.15,
0.0;

Shading:Building:Detailed,
House1_31,
,
4,
10.975,
2.15,
0.0,
10.975,
2.15,
4.8,
10.975,
3.4,
4.8,
10.975,
3.4,
0.0;

Shading:Building:Detailed,
House1_32,
,
4,
9.95,
7.5,
0.0,
9.95,
7.5,
4.8,
8.8,
7.5,
4.8,
8.8,
7.5,
0.0;

Shading:Building:Detailed,
House1_33,
,
4,
8.8,
7.5,
0.0,
8.8,
7.5,
4.8,
8.8,
4.3,
4.8,
8.8,
4.3,
0.0;

Shading:Building:Detailed,
House1_34,
,
4,
8.8,
4.3,
0.0,
8.8,
4.3,
4.8,
9.95,
4.3,
4.8,
9.95,
4.3,
0.0;

Shading:Building:Detailed,
House1_35,
,
4,
9.95,
4.3,
0.0,
9.95,
4.3,
4.8,
9.95,
7.5,
4.8,
9.95,
7.5,
0.0;

Shading:Building:Detailed,
House1_36,
,
4,
10.975,
4.3,
0.0,
10.975,
4.3,
4.8,
9.95,
4.3,
4.8,
9.95,
4.3,
0.0;

Shading:Building:Detailed,
House1_37,
,
4,
9.95,
4.3,
0.0,
9.95,
4.3,
4.8,
9.95,
3.4,
4.8,
9.95,
3.4,
0.0;

Shading:Building:Detailed,
House1_38,
,
4,
9.95,
3.4,
0.0,
9.95,
3.4,
4.8,
10.975,
3.4,
4.8,
10.975,
3.4,
0.0;

Shading:Building:Detailed,
House1_39,
,
4,
10.975,
3.4,
0.0,
10.975,
3.4,
4.8,
10.975,
4.3,
4.8,
10.975,
4.3,
0.0;

Shading:Building:Detailed,
House1_40,
,
4,
9.95,
4.3,
0.0,
9.95,
4.3,
4.8,
8.8,
4.3,
4.8,
8.8,
4.3,
0.0;

Shading:Building:Detailed,
House1_41,
,
4,
8.8,
4.3,
0.0,
8.8,
4.3,
4.8,
8.8,
3.4,
4.8,
8.8,
3.4,
0.0;

Shading:Building:Detailed,
House1_42,
,
4,
8.8,
3.4,
0.0,
8.8,
3.4,
4.8,
9.95,
3.4,
4.8,
9.95,
3.4,
0.0;

Shading:Building:Detailed,
House1_43,
,
4,
9.95,
3.4,
0.0,
9.95,
3.4,
4.8,
9.95,
4.3,
4.8,
9.95,
4.3,
0.0;

Shading:Building:Detailed,
House1_RoofShade_0,
,
4,
12.0,
3.75,
6.8,
6.0,
3.75,
6.8,
6.0,
7.5,
4.8,
12.0,
7.5,
4.8;

Shading:Building:Detailed,
House1_RoofShade_1,
,
4,
6.0,
3.75,
6.8,
12.0,
3.75,
6.8,
12.0,
0.0,
4.8,
6.0,
0.0,
4.8;

Zone,
Dining,
0.0,
0.0,
0.0,
0.0;

AirflowNetwork:MultiZone:Zone,
Dining,
Constant,
,
1.0,
0.0,
100.0,
0.0,
300000.0;

ZoneContaminantSourceAndSink:Generic:DepositionRateSink,
Gas_PM25_test_Dining_DepRate_,
Dining,
5e-05,
Gas_PM25_test_Dining_DepRate_;

BuildingSurface:Detailed,
Dining_Floor,
Floor,
Suspended_Wooden_Floor,
Dining,
Surface,
Cellar_Ceiling,
NoSun,
NoWind,
autocalculate,
autocalculate,
3.2,
7.5,
0.0,
6.0,
7.5,
0.0,
6.0,
3.4,
0.0,
3.2,
3.4,
0.0;

BuildingSurface:Detailed,
Dining_L1,
Wall,
SOLID_BRICK_RandomU,
Dining,
Outdoors,
,
SunExposed,
WindExposed,
autocalculate,
autocalculate,
3.2,
7.5,
2.3,
6.0,
7.5,
2.3,
6.0,
7.5,
0.1,
3.2,
7.5,
0.1;

SurfaceProperty:ConvectionCoefficients,
Dining_L1,
Inside,
Value,
8.29,
,
,
Outside,
Value,
29.3;

SurfaceProperties:VaporCoefficients,
Dining_L1,
Yes,
6.25e-08,
Yes,
2e-08;

FenestrationSurface:Detailed,
Dining_L1_window,
Window,
Window_RandomU,
Dining_L1,
,
autocalculate,
,
,
,
autocalculate,
3.8331884194927675,
7.5,
1.8024948132556826,
5.3668,
7.5,
1.8025,
5.3668,
7.5,
0.5975,
3.8332,
7.5,
0.5975;

AirflowNetwork:MultiZone:Surface,
Dining_L1_window,
Dining_L1_window_Opening,
Dining_L1_window_extN,
1.0,
Temperature,
Window_temperatureX_Dining_Window_Temperature_,
1.0,
0.0,
100.0,
0.0,
300000.0,
Window_opening_pensioner_Dining_Window_;

AirflowNetwork:MultiZone:ExternalNode,
Dining_L1_window_extN,
1.2,
L1;

AirflowNetwork:MultiZone:Component:DetailedOpening,
Dining_L1_window_Opening,
1e-08,
0.66,
HorizontallyPivoted,
0.0,
2,
0.0,
0.6,
0.0,
0.0,
0.0,
1.0,
0.5,
1.0,
0.33333,
0.66666;

BuildingSurface:Detailed,
Dining_L2,
Wall,
SOLID_BRICK_RandomU,
Dining,
Adiabatic,
Dining_L2,
NoSun,
NoWind,
autocalculate,
autocalculate,
6.0,
7.5,
2.4,
6.0,
3.4,
2.4,
6.0,
3.4,
0.0,
6.0,
7.5,
0.0;

SurfaceProperty:ConvectionCoefficients,
Dining_L2,
Inside,
Value,
8.29,
,
,
Outside,
Value,
29.3;

SurfaceProperties:VaporCoefficients,
Dining_L2,
Yes,
6.25e-08,
Yes,
2e-08;

BuildingSurface:Detailed,
Dining_L3,
Wall,
Single_Brick_Internal_Wall,
Dining,
Surface,
Living_L1,
NoSun,
NoWind,
autocalculate,
autocalculate,
6.0,
3.4000000000000004,
2.4,
3.2,
3.4,
2.4,
3.2,
3.4,
0.0,
6.0,
3.4,
0.0;

SurfaceProperty:ConvectionCoefficients,
Dining_L3,
Inside,
Value,
8.29,
,
,
Outside,
Value,
8.29;

SurfaceProperties:VaporCoefficients,
Dining_L3,
Yes,
2e-08,
Yes,
2e-08;

AirflowNetwork:MultiZone:Surface,
Dining_L3,
Dining_L3_Crack,
,
1.0,
Constant,
,
1.0,
0.0,
100.0,
0.0,
300000.0;

AirflowNetwork:MultiZone:Surface:Crack,
Dining_L3_Crack,
0.0033994061205229677,
0.66,
RCC1;

BuildingSurface:Detailed,
Dining_L4,
Wall,
Single_Brick_Internal_Wall,
Dining,
Surface,
Hall++_L2,
NoSun,
NoWind,
autocalculate,
autocalculate,
3.2,
3.4,
2.4,
3.2,
4.3,
2.4,
3.2,
4.3,
0.0,
3.2,
3.4,
0.0;

SurfaceProperty:ConvectionCoefficients,
Dining_L4,
Inside,
Value,
8.29,
,
,
Outside,
Value,
8.29;

SurfaceProperties:VaporCoefficients,
Dining_L4,
Yes,
2e-08,
Yes,
2e-08;

AirflowNetwork:MultiZone:Surface,
Dining_L4,
Dining_L4_Crack,
,
1.0,
Constant,
,
1.0,
0.0,
100.0,
0.0,
300000.0;

AirflowNetwork:MultiZone:Surface:Crack,
Dining_L4_Crack,
0.0010926662530252394,
0.66,
RCC1;

FenestrationSurface:Detailed,
Dining_door_Hall,
Door,
Wooden_Door,
Dining_L4,
Hall_door_Dining,
,
,
,
,
autocalculate,
3.2,
3.4499999999999997,
2.0,
3.2,
4.25,
2.0,
3.2,
4.25,
0.0,
3.2,
3.45,
0.0;

AirflowNetwork:MultiZone:Surface,
Dining_door_Hall,
Dining_door_Hall_Opening,
,
1.0,
Constant,
,
1.0,
0.0,
100.0,
0.0,
300000.0,
Doors_AWESOME_Dining_Door_Hall;

AirflowNetwork:MultiZone:Component:DetailedOpening,
Dining_door_Hall_Opening,
0.009,
0.5,
NonPivoted,
0.0,
2,
0.0,
0.001,
0.0,
0.0,
0.0,
1.0,
0.78,
1.0,
1.0,
0.0;

BuildingSurface:Detailed,
Dining_Ceiling,
Ceiling,
Suspended_Wooden_Ceiling,
Dining,
Surface,
Bedroom2_Floor,
NoSun,
NoWind,
autocalculate,
autocalculate,
3.2,
7.5,
2.4,
3.2,
3.4,
2.4,
6.0,
3.4,
2.4,
6.0,
7.5,
2.4;

BuildingSurface:Detailed,
Dining_L4_qc010,
Wall,
Single_Brick_Internal_Wall,
Dining,
Surface,
Kitchen_L2,
NoSun,
NoWind,
autocalculate,
autocalculate,
3.2,
4.3,
2.4,
3.2,
7.5,
2.4,
3.2,
7.5,
0.0,
3.2,
4.3,
0.0;

SurfaceProperty:ConvectionCoefficients,
Dining_L4_qc010,
Inside,
Value,
8.29,
,
,
Outside,
Value,
8.29;

SurfaceProperties:VaporCoefficients,
Dining_L4_qc010,
Yes,
2e-08,
Yes,
2e-08;

AirflowNetwork:MultiZone:Surface,
Dining_L4_qc010,
Dining_L4_qc010_Crack,
,
1.0,
Constant,
,
1.0,
0.0,
100.0,
0.0,
300000.0;

AirflowNetwork:MultiZone:Surface:Crack,
Dining_L4_qc010_Crack,
0.003885035566311963,
0.66,
RCC1;

BuildingSurface:Detailed,
Dining_L1_pu,
Wall,
SOLID_BRICK_RandomU,
Dining,
Outdoors,
,
SunExposed,
WindExposed,
autocalculate,
autocalculate,
3.2,
7.5,
2.4,
6.0,
7.5,
2.4,
6.0,
7.5,
2.3,
3.2,
7.5,
2.3;

SurfaceProperty:ConvectionCoefficients,
Dining_L1_pu,
Inside,
Value,
8.29,
,
,
Outside,
Value,
29.3;

SurfaceProperties:VaporCoefficients,
Dining_L1_pu,
Yes,
6.25e-08,
Yes,
2e-08;

AirflowNetwork:MultiZone:Surface,
Dining_L1_pu,
Dining_L1_pu_Crack,
Dining_L1_pu_extN,
1.0,
Constant,
,
1.0,
0.0,
100.0,
0.0,
300000.0;

AirflowNetwork:MultiZone:Surface:Crack,
Dining_L1_pu_Crack,
0.0015580611385730267,
0.66,
RCC1;

AirflowNetwork:MultiZone:ExternalNode,
Dining_L1_pu_extN,
2.35,
L1;

BuildingSurface:Detailed,
Dining_L1_pd,
Wall,
SOLID_BRICK_RandomU,
Dining,
Outdoors,
,
SunExposed,
WindExposed,
autocalculate,
autocalculate,
3.2,
7.5,
0.1,
6.0,
7.5,
0.1,
6.0,
7.5,
0.0,
3.2,
7.5,
0.0;

SurfaceProperty:ConvectionCoefficients,
Dining_L1_pd,
Inside,
Value,
8.29,
,
,
Outside,
Value,
29.3;

SurfaceProperties:VaporCoefficients,
Dining_L1_pd,
Yes,
6.25e-08,
Yes,
2e-08;

AirflowNetwork:MultiZone:Surface,
Dining_L1_pd,
Dining_L1_pd_Crack,
Dining_L1_pd_extN,
1.0,
Constant,
,
1.0,
0.0,
100.0,
0.0,
300000.0;

AirflowNetwork:MultiZone:Surface:Crack,
Dining_L1_pd_Crack,
0.0015580611385730267,
0.66,
RCC1;

AirflowNetwork:MultiZone:ExternalNode,
Dining_L1_pd_extN,
0.05,
L1;

ZoneControl:Thermostat,
Dining_Thermostat,
Dining,
Heat_CIBSE_Pensioner_Dining_Heating_,
ThermostatSetpoint:SingleHeating,
Dining_stat;

ThermostatSetpoint:SingleHeating,
Dining_stat,
ComfX_Dining_Comfort_;

ZoneHVAC:Baseboard:Convective:Electric,
Dining_heater,
Heat_CIBSE_Pensioner_Dining_Heating_,
250.4101495958335,
1.0;

ZoneHVAC:EquipmentList,
Dining_equiplist,
ZoneHVAC:Baseboard:Convective:Electric,
Dining_heater,
1,
1;

ZoneHVAC:EquipmentConnections,
Dining,
Dining_equiplist,
,
,
Dining_Air,
Dining_Outlet;

Zone,
Bedroom3,
0.0,
0.0,
0.0,
0.0;

AirflowNetwork:MultiZone:Zone,
Bedroom3,
Constant,
,
1.0,
0.0,
100.0,
0.0,
300000.0;

ZoneContaminantSourceAndSink:Generic:DepositionRateSink,
Gas_PM25_test_Bedroom3_DepRate_,
Bedroom3,
5e-05,
Gas_PM25_test_Bedroom3_DepRate_;

BuildingSurface:Detailed,
Bedroom3_Floor,
Floor,
Suspended_Wooden_Floor,
Bedroom3,
Surface,
Kitchen_Ceiling,
NoSun,
NoWind,
autocalculate,
autocalculate,
0.0,
7.5,
2.4,
3.2,
7.5,
2.4,
3.2,
4.3,
2.4,
0.0,
4.3,
2.4;

AirflowNetwork:MultiZone:Surface,
Bedroom3_Floor,
Bedroom3_Floor_Crack,
,
1.0,
Constant,
,
1.0,
0.0,
100.0,
0.0,
300000.0;

AirflowNetwork:MultiZone:Surface:Crack,
Bedroom3_Floor_Crack,
0.005180047421749285,
0.66,
RCC1;

BuildingSurface:Detailed,
Bedroom3_L1,
Wall,
SOLID_BRICK_RandomU,
Bedroom3,
Outdoors,
,
SunExposed,
WindExposed,
autocalculate,
autocalculate,
0.0,
7.5,
4.7,
3.2,
7.5,
4.7,
3.2,
7.5,
2.5,
0.0,
7.5,
2.5;

SurfaceProperty:ConvectionCoefficients,
Bedroom3_L1,
Inside,
Value,
8.29,
,
,
Outside,
Value,
29.3;

SurfaceProperties:VaporCoefficients,
Bedroom3_L1,
Yes,
6.25e-08,
Yes,
2e-08;

FenestrationSurface:Detailed,
Bedroom3_L1_window,
Window,
Window_RandomU,
Bedroom3_L1,
,
autocalculate,
Bedroom3_L1_window_Shader,
,
,
autocalculate,
0.7236439079917343,
7.5,
4.202494813255683,
2.4764,
7.5,
4.2025,
2.4764,
7.5,
2.9975,
0.7237,
7.5,
2.9975;

WindowProperty:ShadingControl,
Bedroom3_L1_window_Shader,
InteriorShade,
Curtains,
OnIfScheduleAllows,
Window_shading_Bedroom3_Window_Shading_,
,
Yes,
No,
,
FixedSlatAngle,
 ;

AirflowNetwork:MultiZone:Surface,
Bedroom3_L1_window,
Bedroom3_L1_window_Opening,
Bedroom3_L1_window_extN,
1.0,
Temperature,
Window_temperatureX_Bedroom3_Window_Temperature_,
1.0,
0.0,
100.0,
0.0,
300000.0,
Window_opening_pensioner_Bedroom3_Window_;

AirflowNetwork:MultiZone:ExternalNode,
Bedroom3_L1_window_extN,
3.6000000000000005,
L1;

AirflowNetwork:MultiZone:Component:DetailedOpening,
Bedroom3_L1_window_Opening,
1e-08,
0.66,
HorizontallyPivoted,
0.0,
2,
0.0,
0.6,
0.0,
0.0,
0.0,
1.0,
0.5,
1.0,
0.33333,
0.66666;

BuildingSurface:Detailed,
Bedroom3_L2,
Wall,
Single_Brick_Internal_Wall,
Bedroom3,
Surface,
Bedroom2_L4,
NoSun,
NoWind,
autocalculate,
autocalculate,
3.2,
7.5,
4.8,
3.2,
4.3,
4.8,
3.2,
4.3,
2.4,
3.2,
7.5,
2.4;

SurfaceProperty:ConvectionCoefficients,
Bedroom3_L2,
Inside,
Value,
8.29,
,
,
Outside,
Value,
8.29;

SurfaceProperties:VaporCoefficients,
Bedroom3_L2,
Yes,
2e-08,
Yes,
2e-08;

BuildingSurface:Detailed,
Bedroom3_L3,
Wall,
Single_Brick_Internal_Wall,
Bedroom3,
Surface,
Staircase_L1,
NoSun,
NoWind,
autocalculate,
autocalculate,
1.025,
4.3,
4.8,
0.0,
4.3,
4.8,
0.0,
4.3,
2.4,
1.025,
4.3,
2.4;

SurfaceProperty:ConvectionCoefficients,
Bedroom3_L3,
Inside,
Value,
8.29,
,
,
Outside,
Value,
8.29;

SurfaceProperties:VaporCoefficients,
Bedroom3_L3,
Yes,
2e-08,
Yes,
2e-08;

AirflowNetwork:MultiZone:Surface,
Bedroom3_L3,
Bedroom3_L3_Crack,
,
1.0,
Constant,
,
1.0,
0.0,
100.0,
0.0,
300000.0;

AirflowNetwork:MultiZone:Surface:Crack,
Bedroom3_L3_Crack,
0.0012444254548343004,
0.66,
RCC1;

BuildingSurface:Detailed,
Bedroom3_L4,
Wall,
SOLID_BRICK_RandomU,
Bedroom3,
Adiabatic,
Bedroom3_L4,
NoSun,
NoWind,
autocalculate,
autocalculate,
0.0,
4.3,
4.8,
0.0,
7.5,
4.8,
0.0,
7.5,
2.4,
0.0,
4.3,
2.4;

SurfaceProperty:ConvectionCoefficients,
Bedroom3_L4,
Inside,
Value,
8.29,
,
,
Outside,
Value,
29.3;

SurfaceProperties:VaporCoefficients,
Bedroom3_L4,
Yes,
6.25e-08,
Yes,
2e-08;

BuildingSurface:Detailed,
Bedroom3_Ceiling,
Ceiling,
LoftCeiling_RandomU,
Bedroom3,
Surface,
Attic_Floor_q2_qc010_qa010,
NoSun,
NoWind,
autocalculate,
autocalculate,
2.05,
7.5,
4.8,
2.05,
4.3,
4.8,
3.2,
4.3,
4.8,
3.2,
7.5,
4.8;

SurfaceProperty:ConvectionCoefficients,
Bedroom3_Ceiling,
Inside,
Value,
8.29,
,
,
Outside,
Value,
8.29;

BuildingSurface:Detailed,
Bedroom3_L3_qc100,
Wall,
Single_Brick_Internal_Wall,
Bedroom3,
Surface,
TopHall+_L1,
NoSun,
NoWind,
autocalculate,
autocalculate,
3.2,
4.3,
4.8,
1.025,
4.3,
4.8,
1.025,
4.3,
2.4,
3.2,
4.3,
2.4;

SurfaceProperty:ConvectionCoefficients,
Bedroom3_L3_qc100,
Inside,
Value,
8.29,
,
,
Outside,
Value,
8.29;

SurfaceProperties:VaporCoefficients,
Bedroom3_L3_qc100,
Yes,
2e-08,
Yes,
2e-08;

AirflowNetwork:MultiZone:Surface,
Bedroom3_L3_qc100,
Bedroom3_L3_qc100_Crack,
,
1.0,
Constant,
,
1.0,
0.0,
100.0,
0.0,
300000.0;

AirflowNetwork:MultiZone:Surface:Crack,
Bedroom3_L3_qc100_Crack,
0.002640610111477663,
0.66,
RCC1;

FenestrationSurface:Detailed,
Bedroom3_door_TopHall,
Door,
Wooden_Door,
Bedroom3_L3_qc100,
TopHall_door_Bedroom3,
,
,
,
,
autocalculate,
2.5125,
4.3,
4.4,
1.7125,
4.3,
4.4,
1.7125,
4.3,
2.4,
2.5125,
4.3,
2.4;

AirflowNetwork:MultiZone:Surface,
Bedroom3_door_TopHall,
Bedroom3_door_TopHall_Opening,
,
1.0,
Constant,
,
1.0,
0.0,
100.0,
0.0,
300000.0,
Doors_AWESOME_Bedroom3_Door_TopHall;

AirflowNetwork:MultiZone:Component:DetailedOpening,
Bedroom3_door_TopHall_Opening,
0.009,
0.5,
NonPivoted,
0.0,
2,
0.0,
0.001,
0.0,
0.0,
0.0,
1.0,
0.78,
1.0,
1.0,
0.0;

BuildingSurface:Detailed,
Bedroom3_Ceiling_qa010,
Ceiling,
LoftCeiling_RandomU,
Bedroom3,
Surface,
Attic_Floor_qc010_q2,
NoSun,
NoWind,
autocalculate,
autocalculate,
1.025,
7.5,
4.8,
1.025,
4.3,
4.8,
2.05,
4.3,
4.8,
2.05,
7.5,
4.8;

SurfaceProperty:ConvectionCoefficients,
Bedroom3_Ceiling_qa010,
Inside,
Value,
8.29,
,
,
Outside,
Value,
8.29;

BuildingSurface:Detailed,
Bedroom3_Ceiling_qa010_qa010,
Ceiling,
LoftCeiling_RandomU,
Bedroom3,
Surface,
Attic_Floor_qc010_qc010,
NoSun,
NoWind,
autocalculate,
autocalculate,
0.0,
7.5,
4.8,
0.0,
4.3,
4.8,
1.025,
4.3,
4.8,
1.025,
7.5,
4.8;

SurfaceProperty:ConvectionCoefficients,
Bedroom3_Ceiling_qa010_qa010,
Inside,
Value,
8.29,
,
,
Outside,
Value,
8.29;

BuildingSurface:Detailed,
Bedroom3_L1_pu,
Wall,
SOLID_BRICK_RandomU,
Bedroom3,
Outdoors,
,
SunExposed,
WindExposed,
autocalculate,
autocalculate,
0.0,
7.5,
4.8,
3.2,
7.5,
4.8,
3.2,
7.5,
4.7,
0.0,
7.5,
4.7;

SurfaceProperty:ConvectionCoefficients,
Bedroom3_L1_pu,
Inside,
Value,
8.29,
,
,
Outside,
Value,
29.3;

SurfaceProperties:VaporCoefficients,
Bedroom3_L1_pu,
Yes,
6.25e-08,
Yes,
2e-08;

AirflowNetwork:MultiZone:Surface,
Bedroom3_L1_pu,
Bedroom3_L1_pu_Crack,
Bedroom3_L1_pu_extN,
1.0,
Constant,
,
1.0,
0.0,
100.0,
0.0,
300000.0;

AirflowNetwork:MultiZone:Surface:Crack,
Bedroom3_L1_pu_Crack,
0.0017806413012263162,
0.66,
RCC1;

AirflowNetwork:MultiZone:ExternalNode,
Bedroom3_L1_pu_extN,
4.75,
L1;

BuildingSurface:Detailed,
Bedroom3_L1_pd,
Wall,
SOLID_BRICK_RandomU,
Bedroom3,
Outdoors,
,
SunExposed,
WindExposed,
autocalculate,
autocalculate,
0.0,
7.5,
2.5,
3.2,
7.5,
2.5,
3.2,
7.5,
2.4,
0.0,
7.5,
2.4;

SurfaceProperty:ConvectionCoefficients,
Bedroom3_L1_pd,
Inside,
Value,
8.29,
,
,
Outside,
Value,
29.3;

SurfaceProperties:VaporCoefficients,
Bedroom3_L1_pd,
Yes,
6.25e-08,
Yes,
2e-08;

AirflowNetwork:MultiZone:Surface,
Bedroom3_L1_pd,
Bedroom3_L1_pd_Crack,
Bedroom3_L1_pd_extN,
1.0,
Constant,
,
1.0,
0.0,
100.0,
0.0,
300000.0;

AirflowNetwork:MultiZone:Surface:Crack,
Bedroom3_L1_pd_Crack,
0.0017806413012263162,
0.66,
RCC1;

AirflowNetwork:MultiZone:ExternalNode,
Bedroom3_L1_pd_extN,
2.45,
L1;

ZoneControl:Thermostat,
Bedroom3_Thermostat,
Bedroom3,
Heat_CIBSE_Pensioner_Bedroom3_Heating_,
ThermostatSetpoint:SingleHeating,
Bedroom3_stat;

ThermostatSetpoint:SingleHeating,
Bedroom3_stat,
ComfX_Bedroom3_Comfort_;

ZoneHVAC:Baseboard:Convective:Electric,
Bedroom3_heater,
Heat_CIBSE_Pensioner_Bedroom3_Heating_,
223.3623634025554,
1.0;

ZoneHVAC:EquipmentList,
Bedroom3_equiplist,
ZoneHVAC:Baseboard:Convective:Electric,
Bedroom3_heater,
1,
1;

ZoneHVAC:EquipmentConnections,
Bedroom3,
Bedroom3_equiplist,
,
,
Bedroom3_Air,
Bedroom3_Outlet;

Zone,
Bedroom1,
0.0,
0.0,
0.0,
0.0;

AirflowNetwork:MultiZone:Zone,
Bedroom1,
Constant,
,
1.0,
0.0,
100.0,
0.0,
300000.0;

ZoneContaminantSourceAndSink:Generic:DepositionRateSink,
Gas_PM25_test_Bedroom1_DepRate_,
Bedroom1,
5e-05,
Gas_PM25_test_Bedroom1_DepRate_;

BuildingSurface:Detailed,
Bedroom1_Floor,
Floor,
Suspended_Wooden_Floor,
Bedroom1,
Surface,
Living_Ceiling,
NoSun,
NoWind,
autocalculate,
autocalculate,
2.05,
3.4,
2.4,
6.0,
3.4,
2.4,
6.0,
0.0,
2.4,
2.05,
0.0,
2.4;

AirflowNetwork:MultiZone:Surface,
Bedroom1_Floor,
Bedroom1_Floor_Crack,
,
1.0,
Constant,
,
1.0,
0.0,
100.0,
0.0,
300000.0;

AirflowNetwork:MultiZone:Surface:Crack,