Version,
8.1.0.009;

SimulationControl,
No,
No,
No,
Yes,
Yes;

Building,
Semi,
0.0,
Urban,
0.04,
0.4,
FullExterior,
25,
6;

SurfaceConvectionAlgorithm:Inside,
TARP;

SurfaceConvectionAlgorithm:Outside,
TARP;

HeatBalanceAlgorithm,
ConductionTransferFunction,
200;

Timestep,
6;

RunPeriod,
,
1,
1,
1,
31,
Monday,
Yes,
Yes,
No,
Yes,
Yes,
1;

Site:GroundTemperature:BuildingSurface,
8.3,
6.4,
5.8,
6.3,
8.9,
11.7,
14.4,
16.4,
17,
16.1,
13.8,
11;

ScheduleTypeLimits,
Control,
0,
4,
Discrete,
Control;

ScheduleTypeLimits,
Thermal,
-20.0,
60.0,
Continuous,
Temperature;

ScheduleTypeLimits,
Fraction,
0.0,
10.0,
Continuous,
Dimensionless;

ScheduleTypeLimits,
Number,
0.0,
1000000000.0,
Continuous,
Dimensionless;

Material,
Spruce_0.05,
Rough,
0.05,
0.09,
455,
1500,
0.9,
0.7,
0.7;

Material,
AirGapExt_0.01,
Rough,
0.05680012301167436,
0.02485,
1.204,
1004,
0.9,
0.7,
0.7;

Material,
Gypsum_0.1,
Rough,
0.1,
0.2,
850,
850,
0.9,
0.6,
0.7;

Material,
Concrete_0.5,
Rough,
0.5,
1.6,
2300,
850,
0.9,
0.7,
0.7;

Material,
Spruce_0.0125,
Rough,
0.0125,
0.09,
455,
1500,
0.9,
0.7,
0.7;

Material,
Brick_0.1,
Rough,
0.1,
0.6,
1712,
850,
0.9,
0.7,
0.7;

Material,
Gypsum_0.01,
Rough,
0.01,
0.2,
850,
850,
0.9,
0.6,
0.7;

Material,
Brick_0.11,
Rough,
0.11,
0.6,
1712,
850,
0.9,
0.7,
0.7;

Material,
Concrete_0.01,
Rough,
0.01,
1.6,
2300,
850,
0.9,
0.7,
0.7;

Material,
Spruce_0.04,
Rough,
0.04,
0.09,
455,
1500,
0.9,
0.7,
0.7;

Material,
GlassFiberFloor_0.0065,
Rough,
0.006499999986350003,
0.04,
80,
840,
0.9,
0.7,
0.7;

Material,
Concrete_0.04,
Rough,
0.04,
1.6,
2300,
850,
0.9,
0.7,
0.7;

Material,
AirGapRoof_0.0001,
Rough,
0.15482229036824824,
0.02485,
1.204,
1004,
0.9,
0.7,
0.7;

Material,
AirGap_0.1,
Rough,
0.1,
0.02485,
1.204,
1004,
0.9,
0.7,
0.7;

WindowMaterial:Glazing,
Glass_0.01,
SpectralAverage,
,
0.01,
0.775,
0.071,
0.071,
0.881,
0.08,
0.08,
0.0,
0.84,
0.84,
0.9;

WindowMaterial:Gas,
GasWin_0.01,
Air,
0.008027067456118803;

WindowMaterial:Shade,
Drapes_0.004,
0.05,
0.3,
0.05,
0.3,
0.9,
0.0,
0.004,
0.1,
0.05,
1.0,
1.0,
0.0,
0.0,
0.0;

Construction,
Curtains,
Glass_0.01,
GasWin_0.01,
Glass_0.01,
Drapes_0.004;

Construction,
FLOOR_RandomU,
Concrete_0.5,
GlassFiberFloor_0.0065,
Gypsum_0.1;

Construction,
Window_RandomU,
Glass_0.01,
GasWin_0.01,
Glass_0.01;

Construction,
LoftFloor_RandomU,
Concrete_0.01,
Spruce_0.0125,
AirGapRoof_0.0001,
Gypsum_0.01;

Construction,
Suspended_Wooden_Ceiling,
Spruce_0.05,
AirGap_0.1,
Gypsum_0.01;

Construction,
3.10_Roof,
Concrete_0.04,
Gypsum_0.01;

Construction,
Wooden_Door,
Spruce_0.04;

Construction,
Suspended_Wooden_Floor,
Gypsum_0.01,
AirGap_0.1,
Spruce_0.05;

Construction,
Single_Brick_Internal_Wall,
Gypsum_0.01,
Brick_0.1,
Gypsum_0.01;

Construction,
CAVITY_RandomU,
Brick_0.11,
AirGapExt_0.01,
Brick_0.11,
Gypsum_0.01;

Construction,
LoftCeiling_RandomU,
Gypsum_0.01,
AirGapRoof_0.0001,
Spruce_0.0125,
Concrete_0.01;

AirflowNetwork:SimulationControl,
AF1,
MultiZoneWithoutDistribution,
Input,
WParray,
ExternalNode,
LowRise,
500,
ZeroNodePressures,
0.0001,
1.E-6,
-0.5,
0,
1;

AirflowNetwork:MultiZone:ReferenceCrackConditions,
RCC1,
20,
101325,
0;

AirflowNetwork:MultiZone:WindPressureCoefficientArray,
WParray,
0.0,
30.0,
60.0,
90.0,
120.0,
150.0,
180.0,
210.0,
240.0,
270.0,
300.0,
330.0,
360.0;

AirflowNetwork:MultiZone:WindPressureCoefficientValues,
L4,
WParray,
-0.34,
-0.632,
-0.37,
-0.452,
-0.37,
-0.632,
-0.34,
0.183,
0.48,
0.603,
0.603,
0.48,
0.183;

AirflowNetwork:MultiZone:WindPressureCoefficientValues,
Ceiling,
WParray,
0,
0,
0,
0,
0,
0,
0,
0,
0,
0,
0,
0,
0;

AirflowNetwork:MultiZone:WindPressureCoefficientValues,
L1,
WParray,
0.603,
0.48,
0.183,
-0.34,
-0.632,
-0.37,
-0.452,
-0.37,
-0.632,
-0.34,
0.183,
0.48,
0.603;

AirflowNetwork:MultiZone:WindPressureCoefficientValues,
Floor,
WParray,
0,
0,
0,
0,
0,
0,
0,
0,
0,
0,
0,
0,
0;

AirflowNetwork:MultiZone:WindPressureCoefficientValues,
L3,
WParray,
-0.452,
-0.37,
-0.632,
-0.34,
0.183,
0.48,
0.603,
0.48,
0.183,
-0.34,
-0.632,
-0.37,
-0.452;

AirflowNetwork:MultiZone:WindPressureCoefficientValues,
L2,
WParray,
-0.34,
0.183,
0.48,
0.603,
0.603,
0.48,
0.183,
-0.34,
-0.632,
-0.37,
-0.452,
-0.37,
-0.632;

ZoneAirContaminantBalance,
No,
,
Yes,
Gas_PM25_test_Outside_Contaminant_;

GlobalGeometryRules,
UpperLeftCorner,
CounterClockwise,
Relative;

Shading:Building:Detailed,
House1_0,
,
4,
13.214991486943912,
8.589744466513542,
0.0,
13.215,
8.5897,
5.2,
10.5799,
8.5897,
5.2,
10.5799,
8.5897,
0.0;

Shading:Building:Detailed,
House1_1,
,
4,
10.579859255916407,
8.589744466513542,
0.0,
10.5799,
8.5897,
5.2,
10.5799,
5.7579,
5.2,
10.5799,
5.7579,
0.0;

Shading:Building:Detailed,
House1_2,
,
4,
10.579859255916407,
5.757960576454133,
0.0,
10.5799,
5.758,
5.2,
13.215,
5.758,
5.2,
13.215,
5.758,
0.0;

Shading:Building:Detailed,
House1_3,
,
4,
13.214991486943912,
5.757960576454133,
0.0,
13.215,
5.758,
5.2,
13.215,
8.5898,
5.2,
13.215,
8.5898,
0.0;

Shading:Building:Detailed,
House1_4,
,
4,
13.214991486943912,
3.146426544510455,
0.0,
13.215,
3.1464,
5.2,
10.5799,
3.1464,
5.2,
10.5799,
3.1464,
0.0;

Shading:Building:Detailed,
House1_5,
,
4,
10.579859255916407,
3.146426544510455,
0.0,
10.5799,
3.1464,
5.2,
10.5799,
-0.0,
5.2,
10.5799,
-0.0,
0.0;

Shading:Building:Detailed,
House1_6,
,
4,
10.579859255916407,
0.0,
0.0,
10.5799,
0.0,
5.2,
13.215,
0.0,
5.2,
13.215,
0.0,
0.0;

Shading:Building:Detailed,
House1_7,
,
4,
13.214991486943912,
0.0,
0.0,
13.215,
0.0,
5.2,
13.215,
3.1464,
5.2,
13.215,
3.1464,
0.0;

Shading:Building:Detailed,
House1_8,
,
4,
10.579859255916407,
4.814032613100996,
0.0,
10.5799,
4.814,
5.2,
6.6075,
4.814,
5.2,
6.6075,
4.814,
0.0;

Shading:Building:Detailed,
House1_9,
,
4,
6.607495743471957,
4.814032613100996,
0.0,
6.6075,
4.814,
5.2,
6.6075,
-0.0,
5.2,
6.6075,
-0.0,
0.0;

Shading:Building:Detailed,
House1_10,
,
4,
6.607495743471957,
0.0,
0.0,
6.6075,
0.0,
5.2,
10.5799,
0.0,
5.2,
10.5799,
0.0,
0.0;

Shading:Building:Detailed,
House1_11,
,
4,
10.579859255916407,
0.0,
0.0,
10.5799,
0.0,
5.2,
10.5799,
4.814,
5.2,
10.5799,
4.814,
0.0;

Shading:Building:Detailed,
House1_12,
,
4,
10.579859255916407,
8.589744466513542,
0.0,
10.5799,
8.5897,
5.2,
6.6075,
8.5897,
5.2,
6.6075,
8.5897,
0.0;

Shading:Building:Detailed,
House1_13,
,
4,
6.607495743471957,
8.589744466513542,
0.0,
6.6075,
8.5897,
5.2,
6.6075,
5.7579,
5.2,
6.6075,
5.7579,
0.0;

Shading:Building:Detailed,
House1_14,
,
4,
6.607495743471957,
5.757960576454133,
0.0,
6.6075,
5.758,
5.2,
10.5799,
5.758,
5.2,
10.5799,
5.758,
0.0;

Shading:Building:Detailed,
House1_15,
,
4,
10.579859255916407,
5.757960576454133,
0.0,
10.5799,
5.758,
5.2,
10.5799,
8.5898,
5.2,
10.5799,
8.5898,
0.0;

Shading:Building:Detailed,
House1_16,
,
4,
13.214991486943912,
4.814032613100996,
0.0,
13.215,
4.814,
5.2,
12.0875,
4.814,
5.2,
12.0875,
4.814,
0.0;

Shading:Building:Detailed,
House1_17,
,
4,
12.087521975161,
4.814032613100996,
0.0,
12.0875,
4.814,
5.2,
12.0875,
3.1464,
5.2,
12.0875,
3.1464,
0.0;

Shading:Building:Detailed,
House1_18,
,
4,
12.087521975161,
3.146426544510455,
0.0,
12.0875,
3.1464,
5.2,
13.215,
3.1464,
5.2,
13.215,
3.1464,
0.0;

Shading:Building:Detailed,
House1_19,
,
4,
13.214991486943912,
3.146426544510455,
0.0,
13.215,
3.1464,
5.2,
13.215,
4.814,
5.2,
13.215,
4.814,
0.0;

Shading:Building:Detailed,
House1_20,
,
4,
10.579859255916407,
5.757960576454133,
0.0,
10.5799,
5.758,
5.2,
6.6075,
5.758,
5.2,
6.6075,
5.758,
0.0;

Shading:Building:Detailed,
House1_21,
,
4,
6.607495743471957,
5.757960576454133,
0.0,
6.6075,
5.758,
5.2,
6.6075,
4.8141,
5.2,
6.6075,
4.8141,
0.0;

Shading:Building:Detailed,
House1_22,
,
4,
6.607495743471957,
4.814032613100996,
0.0,
6.6075,
4.814,
5.2,
10.5799,
4.814,
5.2,
10.5799,
4.814,
0.0;

Shading:Building:Detailed,
House1_23,
,
4,
10.579859255916407,
4.814032613100996,
0.0,
10.5799,
4.814,
5.2,
10.5799,
5.7579,
5.2,
10.5799,
5.7579,
0.0;

Shading:Building:Detailed,
House1_24,
,
4,
12.087521975161,
5.757960576454133,
0.0,
12.0875,
5.758,
5.2,
10.5798,
5.758,
5.2,
10.5798,
5.758,
0.0;

Shading:Building:Detailed,
House1_25,
,
4,
10.579859255916407,
5.757960576454133,
0.0,
10.5799,
5.758,
5.2,
10.5799,
4.8141,
5.2,
10.5799,
4.8141,
0.0;

Shading:Building:Detailed,
House1_26,
,
4,
10.579859255916407,
4.814032613100996,
0.0,
10.5799,
4.814,
5.2,
12.0876,
4.814,
5.2,
12.0876,
4.814,
0.0;

Shading:Building:Detailed,
House1_27,
,
4,
12.087521975161,
4.814032613100996,
0.0,
12.0875,
4.814,
5.2,
12.0875,
5.7579,
5.2,
12.0875,
5.7579,
0.0;

Shading:Building:Detailed,
House1_28,
,
4,
13.214991486943912,
5.757960576454133,
0.0,
13.215,
5.758,
5.2,
12.0875,
5.758,
5.2,
12.0875,
5.758,
0.0;

Shading:Building:Detailed,
House1_29,
,
4,
12.087521975161,
5.757960576454133,
0.0,
12.0875,
5.758,
5.2,
12.0875,
4.8141,
5.2,
12.0875,
4.8141,
0.0;

Shading:Building:Detailed,
House1_30,
,
4,
12.087521975161,
4.814032613100996,
0.0,
12.0875,
4.814,
5.2,
13.215,
4.814,
5.2,
13.215,
4.814,
0.0;

Shading:Building:Detailed,
House1_31,
,
4,
13.214991486943912,
4.814032613100996,
0.0,
13.215,
4.814,
5.2,
13.215,
5.7579,
5.2,
13.215,
5.7579,
0.0;

Shading:Building:Detailed,
House1_32,
,
4,
12.087521975161,
4.814032613100996,
0.0,
12.0875,
4.814,
5.2,
10.5798,
4.814,
5.2,
10.5798,
4.814,
0.0;

Shading:Building:Detailed,
House1_33,
,
4,
10.579859255916407,
4.814032613100996,
0.0,
10.5799,
4.814,
5.2,
10.5799,
3.1464,
5.2,
10.5799,
3.1464,
0.0;

Shading:Building:Detailed,
House1_34,
,
4,
10.579859255916407,
3.146426544510455,
0.0,
10.5799,
3.1464,
5.2,
12.0876,
3.1464,
5.2,
12.0876,
3.1464,
0.0;

Shading:Building:Detailed,
House1_35,
,
4,
12.087521975161,
3.146426544510455,
0.0,
12.0875,
3.1464,
5.2,
12.0875,
4.814,
5.2,
12.0875,
4.814,
0.0;

Shading:Building:Detailed,
House1_RoofShade_0,
,
4,
13.214991486943912,
4.294872233256771,
6.369230769230768,
6.607495743471958,
4.294872233256771,
6.369230769230768,
6.607495743471958,
8.589744466513542,
4.6,
13.214991486943912,
8.589744466513542,
4.6;

Shading:Building:Detailed,
House1_RoofShade_1,
,
4,
6.607495743471958,
4.294872233256772,
6.369230769230768,
13.214991486943912,
4.294872233256771,
6.369230769230768,
13.214991486943912,
0.0,
4.6,
6.607495743471958,
0.0,
4.6;

Shading:Building:Detailed,
House1_RoofShade_2,
,
3,
13.214991486943912,
4.294872233256772,
6.369230769230768,
13.214991486943912,
8.589744466513542,
4.6,
13.214991486943912,
0.0,
4.6;

Zone,
Living,
0.0,
0.0,
0.0,
0.0;

AirflowNetwork:MultiZone:Zone,
Living,
Constant,
,
1.0,
0.0,
100.0,
0.0,
300000.0;

ZoneContaminantSourceAndSink:Generic:DepositionRateSink,
Gas_PM25_test_Living_DepRate_,
Living,
5e-05,
Gas_PM25_test_Living_DepRate_;

BuildingSurface:Detailed,
Living_Floor,
Floor,
Suspended_Wooden_Floor,
Living,
Surface,
Cellar_Ceiling_q1_q2,
NoSun,
NoWind,
autocalculate,
autocalculate,
1.992736811523288,
3.5659500837785156,
0.0,
3.3561883141444855,
3.5659500837785156,
0.0,
3.3561883141444855,
3.146426544510455,
0.0,
1.992736811523288,
3.146426544510455,
0.0;

BuildingSurface:Detailed,
Living_L1,
Wall,
Single_Brick_Internal_Wall,
Living,
Surface,
Hall++_L3,
NoSun,
NoWind,
autocalculate,
autocalculate,
1.992736811523288,
3.5659500837785156,
2.3,
3.3561883141444855,
3.5659500837785156,
2.3,
3.3561883141444855,
3.5659500837785156,
0.0,
1.992736811523288,
3.5659500837785156,
0.0;

SurfaceProperty:ConvectionCoefficients,
Living_L1,
Inside,
Value,
8.29,
,
,
Outside,
Value,
8.29;

SurfaceProperties:VaporCoefficients,
Living_L1,
Yes,
2e-08,
Yes,
2e-08;

BuildingSurface:Detailed,
Living_L2,
Wall,
CAVITY_RandomU,
Living,
Adiabatic,
Living_L2,
NoSun,
NoWind,
autocalculate,
autocalculate,
6.607495743471956,
3.5659500837785156,
2.3,
6.607495743471955,
0.0,
2.3,
6.607495743471955,
0.0,
0.0,
6.607495743471955,
3.5659500837785156,
0.0;

SurfaceProperty:ConvectionCoefficients,
Living_L2,
Inside,
Value,
8.29,
,
,
Outside,
Value,
29.3;

SurfaceProperties:VaporCoefficients,
Living_L2,
Yes,
6.25e-08,
Yes,
2e-08;

BuildingSurface:Detailed,
Living_L3,
Wall,
CAVITY_RandomU,
Living,
Outdoors,
,
SunExposed,
WindExposed,
autocalculate,
autocalculate,
6.607495743471956,
0.0,
2.1999999999999997,
1.9927,
0.0,
2.2,
1.9927,
0.0,
0.1,
6.6075,
0.0,
0.1;

SurfaceProperty:ConvectionCoefficients,
Living_L3,
Inside,
Value,
8.29,
,
,
Outside,
Value,
29.3;

SurfaceProperties:VaporCoefficients,
Living_L3,
Yes,
6.25e-08,
Yes,
2e-08;

FenestrationSurface:Detailed,
Living_L3_window,
Window,
Window_RandomU,
Living_L3,
,
autocalculate,
Living_L3_window_Shader,
,
,
autocalculate,
5.563920059735989,
0.0,
1.725108685380424,
3.0363,
0.0,
1.7251,
3.0363,
0.0,
0.5749,
5.5639,
0.0,
0.5749;

WindowProperty:ShadingControl,
Living_L3_window_Shader,
InteriorShade,
Curtains,
OnIfScheduleAllows,
Window_shading_Living_Window_Shading_,
,
Yes,
No,
,
FixedSlatAngle,
 ;

AirflowNetwork:MultiZone:Surface,
Living_L3_window,
Living_L3_window_Opening,
Living_L3_window_extN,
1.0,
Temperature,
Window_temperatureX_Living_Window_Temperature_,
1.0,
0.0,
100.0,
0.0,
300000.0,
Window_opening_family_Living_Window_;

AirflowNetwork:MultiZone:ExternalNode,
Living_L3_window_extN,
1.15,
L3;

AirflowNetwork:MultiZone:Component:DetailedOpening,
Living_L3_window_Opening,
1e-08,
0.66,
HorizontallyPivoted,
0.0,
2,
0.0,
0.6,
0.0,
0.0,
0.0,
1.0,
0.5,
1.0,
0.33333,
0.66666;

BuildingSurface:Detailed,
Living_L4,
Wall,
Single_Brick_Internal_Wall,
Living,
Surface,
Hall_L2,
NoSun,
NoWind,
autocalculate,
autocalculate,
1.992736811523288,
0.0,
2.3,
1.992736811523288,
3.146426544510455,
2.3,
1.992736811523288,
3.146426544510455,
0.0,
1.992736811523288,
0.0,
0.0;

SurfaceProperty:ConvectionCoefficients,
Living_L4,
Inside,
Value,
8.29,
,
,
Outside,
Value,
8.29;

SurfaceProperties:VaporCoefficients,
Living_L4,
Yes,
2e-08,
Yes,
2e-08;

FenestrationSurface:Detailed,
Living_door_Hall,
Door,
Wooden_Door,
Living_L4,
Hall_door_Living,
,
,
,
,
autocalculate,
1.992736811523288,
1.1732132722552273,
2.0,
1.9927,
1.9732,
2.0,
1.9927,
1.9732,
0.0,
1.9927,
1.1732,
0.0;

AirflowNetwork:MultiZone:Surface,
Living_door_Hall,
Living_door_Hall_Opening,
,
1.0,
Constant,
,
1.0,
0.0,
100.0,
0.0,
300000.0,
Doors_AWESOME_Living_Door_Hall;

AirflowNetwork:MultiZone:Component:DetailedOpening,
Living_door_Hall_Opening,
0.009,
0.5,
NonPivoted,
0.0,
2,
0.0,
0.001,
0.0,
0.0,
0.0,
1.0,
0.78,
1.0,
1.0,
0.0;

BuildingSurface:Detailed,
Living_Ceiling,
Ceiling,
Suspended_Wooden_Ceiling,
Living,
Surface,
TopHall_Floor_qc100_qa100,
NoSun,
NoWind,
autocalculate,
autocalculate,
1.992736811523288,
3.5659500837785156,
2.3,
1.992736811523288,
3.146426544510455,
2.3,
2.635132231027506,
3.146426544510455,
2.3,
2.635132231027506,
3.5659500837785156,
2.3;

AirflowNetwork:MultiZone:Surface,
Living_Ceiling,
Living_Ceiling_Crack,
,
1.0,
Constant,
,
1.0,
0.0,
100.0,
0.0,
300000.0;

AirflowNetwork:MultiZone:Surface:Crack,
Living_Ceiling_Crack,
0.0001239366814773999,
0.66,
RCC1;

BuildingSurface:Detailed,
Living_Floor_qc100,
Floor,
Suspended_Wooden_Floor,
Living,
Surface,
Cellar_Ceiling_qa100,
NoSun,
NoWind,
autocalculate,
autocalculate,
3.3561883141444855,
3.5659500837785156,
0.0,
6.607495743471955,
3.5659500837785156,
0.0,
6.607495743471955,
0.0,
0.0,
3.3561883141444855,
0.0,
0.0;

BuildingSurface:Detailed,
Living_L1_qc100,
Wall,
CAVITY_RandomU,
Living,
Outdoors,
,
SunExposed,
WindExposed,
autocalculate,
autocalculate,
3.3561883141444855,
3.5659500837785156,
2.1999999999999997,
6.6075,
3.566,
2.2,
6.6075,
3.566,
0.1,
3.3562,
3.566,
0.1;

SurfaceProperty:ConvectionCoefficients,
Living_L1_qc100,
Inside,
Value,
8.29,
,
,
Outside,
Value,
29.3;

SurfaceProperties:VaporCoefficients,
Living_L1_qc100,
Yes,
6.25e-08,
Yes,
2e-08;

BuildingSurface:Detailed,
Living_L4_qc010,
Wall,
Single_Brick_Internal_Wall,
Living,
Surface,
Hall+_L2_qa001,
NoSun,
NoWind,
autocalculate,
autocalculate,
1.992736811523288,
3.146426544510455,
2.3,
1.992736811523288,
3.5659500837785156,
2.3,
1.992736811523288,
3.5659500837785156,
0.0,
1.992736811523288,
3.146426544510455,
0.0;

SurfaceProperty:ConvectionCoefficients,
Living_L4_qc010,
Inside,
Value,
8.29,
,
,
Outside,
Value,
8.29;

SurfaceProperties:VaporCoefficients,
Living_L4_qc010,
Yes,
2e-08,
Yes,
2e-08;

BuildingSurface:Detailed,
Living_Ceiling_qa100,
Ceiling,
Suspended_Wooden_Ceiling,
Living,
Surface,
Bedroom3_Floor_qc100,
NoSun,
NoWind,
autocalculate,
autocalculate,
1.992736811523288,
3.146426544510455,
2.3,
1.992736811523288,
0.0,
2.3,
2.635132231027506,
0.0,
2.3,
2.635132231027506,
3.146426544510455,
2.3;

BuildingSurface:Detailed,
Living_Ceiling_qb100,
Ceiling,
Suspended_Wooden_Ceiling,
Living,
Surface,
Bedroom1_Floor_q1,
NoSun,
NoWind,
autocalculate,
autocalculate,
2.635132231027506,
3.146426544510455,
2.3,
2.635132231027506,
0.0,
2.3,
3.3561883141444855,
0.0,
2.3,
3.3561883141444855,
3.146426544510455,
2.3;

BuildingSurface:Detailed,
Living_Ceiling_qc100,
Ceiling,
Suspended_Wooden_Ceiling,
Living,
Surface,
Bedroom1_Floor_q1_qc010,
NoSun,
NoWind,
autocalculate,
autocalculate,
2.635132231027506,
3.5659500837785156,
2.3,
2.635132231027506,
3.146426544510455,
2.3,
3.3561883141444855,
3.146426544510455,
2.3,
3.3561883141444855,
3.5659500837785156,
2.3;

BuildingSurface:Detailed,
Living_Ceiling_qb100_qc100,
Ceiling,
Suspended_Wooden_Ceiling,
Living,
Surface,
Bedroom1_Floor_qa100,
NoSun,
NoWind,
autocalculate,
autocalculate,
3.3561883141444855,
3.146426544510455,
2.3,
3.3561883141444855,
0.0,
2.3,
6.607495743471955,
0.0,
2.3,
6.607495743471955,
3.146426544510455,
2.3;

BuildingSurface:Detailed,
Living_Ceiling_qc100_qc100,
Ceiling,
Suspended_Wooden_Ceiling,
Living,
Surface,
Bedroom1_Floor_qa100_qc010,
NoSun,
NoWind,
autocalculate,
autocalculate,
3.3561883141444855,
3.5659500837785156,
2.3,
3.3561883141444855,
3.146426544510455,
2.3,
6.607495743471955,
3.146426544510455,
2.3,
6.607495743471955,
3.5659500837785156,
2.3;

BuildingSurface:Detailed,
Living_Floor_qa100,
Floor,
Suspended_Wooden_Floor,
Living,
Surface,
Cellar_Ceiling_q1_qc100,
NoSun,
NoWind,
autocalculate,
autocalculate,
1.992736811523288,
3.146426544510455,
0.0,
3.3561883141444855,
3.146426544510455,
0.0,
3.3561883141444855,
0.0,
0.0,
1.992736811523288,
0.0,
0.0;

BuildingSurface:Detailed,
Living_L1_qc100_pu,
Wall,
CAVITY_RandomU,
Living,
Outdoors,
,
SunExposed,
WindExposed,
autocalculate,
autocalculate,
3.3561883141444855,
3.5659500837785156,
2.3,
6.6075,
3.566,
2.3,
6.6075,
3.566,
2.2,
3.3562,
3.566,
2.2;

SurfaceProperty:ConvectionCoefficients,
Living_L1_qc100_pu,
Inside,
Value,
8.29,
,
,
Outside,
Value,
29.3;

SurfaceProperties:VaporCoefficients,
Living_L1_qc100_pu,
Yes,
6.25e-08,
Yes,
2e-08;

AirflowNetwork:MultiZone:Surface,
Living_L1_qc100_pu,
Living_L1_qc100_pu_Crack,
Living_L1_qc100_pu_extN,
1.0,
Constant,
,
1.0,
0.0,
100.0,
0.0,
300000.0;

AirflowNetwork:MultiZone:Surface:Crack,
Living_L1_qc100_pu_Crack,
0.0017269553710871244,
0.66,
RCC1;

AirflowNetwork:MultiZone:ExternalNode,
Living_L1_qc100_pu_extN,
2.25,
L1;

BuildingSurface:Detailed,
Living_L1_qc100_pd,
Wall,
CAVITY_RandomU,
Living,
Outdoors,
,
SunExposed,
WindExposed,
autocalculate,
autocalculate,
3.3561883141444855,
3.5659500837785156,
0.1,
6.6075,
3.566,
0.1,
6.6075,
3.566,
0.0,
3.3562,
3.566,
0.0;

SurfaceProperty:ConvectionCoefficients,
Living_L1_qc100_pd,
Inside,
Value,
8.29,
,
,
Outside,
Value,
29.3;

SurfaceProperties:VaporCoefficients,
Living_L1_qc100_pd,
Yes,
6.25e-08,
Yes,
2e-08;

AirflowNetwork:MultiZone:Surface,
Living_L1_qc100_pd,
Living_L1_qc100_pd_Crack,
Living_L1_qc100_pd_extN,
1.0,
Constant,
,
1.0,
0.0,
100.0,
0.0,
300000.0;

AirflowNetwork:MultiZone:Surface:Crack,
Living_L1_qc100_pd_Crack,
0.0017269553710871244,
0.66,
RCC1;

AirflowNetwork:MultiZone:ExternalNode,
Living_L1_qc100_pd_extN,
0.05,
L1;

BuildingSurface:Detailed,
Living_L3_pu,
Wall,
CAVITY_RandomU,
Living,
Outdoors,
,
SunExposed,
WindExposed,
autocalculate,
autocalculate,
6.607495743471956,
0.0,
2.3,
1.9927,
0.0,
2.3,
1.9927,
0.0,
2.2,
6.6075,
0.0,
2.2;

SurfaceProperty:ConvectionCoefficients,
Living_L3_pu,
Inside,
Value,
8.29,
,
,
Outside,
Value,
29.3;

SurfaceProperties:VaporCoefficients,
Living_L3_pu,
Yes,
6.25e-08,
Yes,
2e-08;

AirflowNetwork:MultiZone:Surface,
Living_L3_pu,
Living_L3_pu_Crack,
Living_L3_pu_extN,
1.0,
Constant,
,
1.0,
0.0,
100.0,
0.0,
300000.0;

AirflowNetwork:MultiZone:Surface:Crack,
Living_L3_pu_Crack,
0.002451162462188177,
0.66,
RCC1;

AirflowNetwork:MultiZone:ExternalNode,
Living_L3_pu_extN,
2.25,
L3;

BuildingSurface:Detailed,
Living_L3_pd,
Wall,
CAVITY_RandomU,
Living,
Outdoors,
,
SunExposed,
WindExposed,
autocalculate,
autocalculate,
6.607495743471956,
0.0,
0.1,
1.9927,
0.0,
0.1,
1.9927,
0.0,
0.0,
6.6075,
0.0,
0.0;

SurfaceProperty:ConvectionCoefficients,
Living_L3_pd,
Inside,
Value,
8.29,
,
,
Outside,
Value,
29.3;

SurfaceProperties:VaporCoefficients,
Living_L3_pd,
Yes,
6.25e-08,
Yes,
2e-08;

AirflowNetwork:MultiZone:Surface,
Living_L3_pd,
Living_L3_pd_Crack,
Living_L3_pd_extN,
1.0,
Constant,
,
1.0,
0.0,
100.0,
0.0,
300000.0;

AirflowNetwork:MultiZone:Surface:Crack,
Living_L3_pd_Crack,
0.002451162462188177,
0.66,
RCC1;

AirflowNetwork:MultiZone:ExternalNode,
Living_L3_pd_extN,
0.05,
L3;

People,
WorkingAdult1_Living,
Living,
WorkingAdult1_Living_Presence_,
People,
1,
,
,
0.1,
autocalculate,
WorkingAdult1_Living_Metabolism_,
3.82e-08,
No,
ZoneAveraged;

People,
Child1_Living,
Living,
Child1_Living_Presence_,
People,
1,
,
,
0.1,
autocalculate,
Child1_Living_Metabolism_,
3.82e-08,
No,
ZoneAveraged;

People,
WorkingAdult2_Living,
Living,
WorkingAdult2_Living_Presence_,
People,
1,
,
,
0.1,
autocalculate,
WorkingAdult2_Living_Metabolism_,
3.82e-08,
No,
ZoneAveraged;

Lights,
Living_WorkingAdult1_Living_Appliance_Lights_Lights,
Living,
WorkingAdult1_Living_Appliance_Lights,
LightingLevel,
100.0,
,
,
0,
0,
0,
1;

ElectricEquipment,
Living_WorkingAdult1_Living_Appliance_NIST_TV_NIST_TV,
Living,
WorkingAdult1_Living_Appliance_NIST_TV,
EquipmentLevel,
62.2,
,
,
0.16,
0.367,
0.10600000000000001;

ElectricEquipment,
Living_WorkingAdult1_Living_Appliance_NIST_MOBILEPHONES_NIST_MOBILEPHONES,
Living,
WorkingAdult1_Living_Appliance_NIST_MOBILEPHONES,
EquipmentLevel,
17.72,
,
,
0.16,
0.367,
0.10600000000000001;

ElectricEquipment,
Living_WorkingAdult2_Living_Appliance_NIST_MOBILEPHONES_NIST_MOBILEPHONES,
Living,
WorkingAdult2_Living_Appliance_NIST_MOBILEPHONES,
EquipmentLevel,
17.72,
,
,
0.16,
0.367,
0.10600000000000001;

ElectricEquipment,
Living_HPRU_ROUTINE_Living_Appliance_TV-Standby_TV-Standby,
Living,
HPRU_ROUTINE_Living_Appliance_TV-Standby,
EquipmentLevel,
20.0,
,
,
0.0,
0.5,
0.0;

ElectricEquipment,
Living_HPRU_ROUTINE_Living_Appliance_NIST_LAPTOP_NIST_LAPTOP,
Living,
HPRU_ROUTINE_Living_Appliance_NIST_LAPTOP,
EquipmentLevel,
36.88,
,
,
0.16,
0.367,
0.10600000000000001;

ElectricEquipment,
Living_HPRU_ROUTINE_Living_Appliance_NIST_WIRELESSROUTER_NIST_WIRELESSROUTER,
Living,
HPRU_ROUTINE_Living_Appliance_NIST_WIRELESSROUTER,
EquipmentLevel,
24.0,
,
,
0.16,
0.367,
0.10600000000000001;

ZoneControl:Thermostat,
Living_Thermostat,
Living,
Heat_CIBSE_Family_Living_Heating_,
ThermostatSetpoint:SingleHeating,
Living_stat;

ThermostatSetpoint:SingleHeating,
Living_stat,
ComfX_Living_Comfort_;

ZoneHVAC:Baseboard:Convective:Electric,
Living_heater,
Heat_CIBSE_Family_Living_Heating_,
797.1269101842893,
1.0;

ZoneHVAC:EquipmentList,
Living_equiplist,
ZoneHVAC:Baseboard:Convective:Electric,
Living_heater,
1,
1;

ZoneHVAC:EquipmentConnections,
Living,
Living_equiplist,
,
,
Living_Air,
Living_Outlet;

Zone,
Bedroom2,
0.0,
0.0,
0.0,
0.0;

AirflowNetwork:MultiZone:Zone,
Bedroom2,
Constant,
,
1.0,
0.0,
100.0,
0.0,
300000.0;

ZoneContaminantSourceAndSink:Generic:DepositionRateSink,
Gas_PM25_test_Bedroom2_DepRate_,
Bedroom2,
5e-05,
Gas_PM25_test_Bedroom2_DepRate_;

BuildingSurface:Detailed,
Bedroom2_Floor,
Floor,
Suspended_Wooden_Floor,
Bedroom2,
Surface,
Dining_Ceiling_qc010,
NoSun,
NoWind,
autocalculate,
autocalculate,
3.3561883141444855,
8.589744466513542,
2.3,
6.607495743471955,
8.589744466513542,
2.3,
6.607495743471955,
4.814032613100996,
2.3,
3.3561883141444855,
4.814032613100996,
2.3;

AirflowNetwork:MultiZone:Surface,
Bedroom2_Floor,
Bedroom2_Floor_Crack,
,
1.0,
Constant,
,
1.0,
0.0,
100.0,
0.0,
300000.0;

AirflowNetwork:MultiZone:Surface:Crack,
Bedroom2_Floor_Crack,
0.00564544230729707,
0.66,
RCC1;

BuildingSurface:Detailed,
Bedroom2_L1,
Wall,
CAVITY_RandomU,
Bedroom2,
Outdoors,
,
SunExposed,
WindExposed,
autocalculate,
autocalculate,
2.635132231027506,
8.589744466513542,
4.5,
6.6075,
8.5897,
4.5,
6.6075,
8.5897,
2.4,
2.6351,
8.5897,
2.4;

SurfaceProperty:ConvectionCoefficients,
Bedroom2_L1,
Inside,
Value,
8.29,
,
,
Outside,
Value,
29.3;

SurfaceProperties:VaporCoefficients,
Bedroom2_L1,
Yes,
6.25e-08,
Yes,
2e-08;

FenestrationSurface:Detailed,
Bedroom2_L1_window,
Window,
Window_RandomU,
Bedroom2_L1,
,
autocalculate,
Bedroom2_L1_window_Shader,
,
,
autocalculate,
3.5334374360615914,
8.589744466513542,
4.025108685380425,
5.7092,
8.5897,
4.0251,
5.7092,
8.5897,
2.8749,
3.5334,
8.5897,
2.8749;

WindowProperty:ShadingControl,
Bedroom2_L1_window_Shader,
InteriorShade,
Curtains,
OnIfScheduleAllows,
Window_shading_Bedroom2_Window_Shading_,
,
Yes,
No,
,
FixedSlatAngle,
 ;

AirflowNetwork:MultiZone:Surface,
Bedroom2_L1_window,
Bedroom2_L1_window_Opening,
Bedroom2_L1_window_extN,
1.0,
Temperature,
Window_temperatureX_Bedroom2_Window_Temperature_,
1.0,
0.0,
100.0,
0.0,
300000.0,
Window_opening_family_Bedroom2_Window_;

AirflowNetwork:MultiZone:ExternalNode,
Bedroom2_L1_window_extN,
3.4500000000000006,
L1;

AirflowNetwork:MultiZone:Component:DetailedOpening,
Bedroom2_L1_window_Opening,
1e-08,
0.66,
HorizontallyPivoted,
0.0,
2,
0.0,
0.6,
0.0,
0.0,
0.0,
1.0,
0.5,
1.0,
0.33333,
0.66666;

BuildingSurface:Detailed,
Bedroom2_L2,
Wall,
CAVITY_RandomU,
Bedroom2,
Adiabatic,
Bedroom2_L2,
NoSun,
NoWind,
autocalculate,
autocalculate,
6.607495743471956,
8.589744466513542,
4.6,
6.607495743471955,
4.814032613100996,
4.6,
6.607495743471955,
4.814032613100996,
2.3,
6.607495743471955,
8.589744466513542,
2.3;

SurfaceProperty:ConvectionCoefficients,
Bedroom2_L2,
Inside,
Value,
8.29,
,
,
Outside,
Value,
29.3;

SurfaceProperties:VaporCoefficients,
Bedroom2_L2,
Yes,
6.25e-08,
Yes,
2e-08;

BuildingSurface:Detailed,
Bedroom2_L3,
Wall,
Single_Brick_Internal_Wall,
Bedroom2,
Surface,
Bedroom1_L1,
NoSun,
NoWind,
autocalculate,
autocalculate,
6.607495743471956,
4.814032613100996,
4.6,
2.635132231027506,
4.814032613100996,
4.6,
2.635132231027506,
4.814032613100996,
2.3,
6.607495743471955,
4.814032613100996,
2.3;

SurfaceProperty:ConvectionCoefficients,
Bedroom2_L3,
Inside,
Value,
8.29,
,
,
Outside,
Value,
8.29;

SurfaceProperties:VaporCoefficients,
Bedroom2_L3,
Yes,
2e-08,
Yes,
2e-08;

BuildingSurface:Detailed,
Bedroom2_L4,
Wall,
Single_Brick_Internal_Wall,
Bedroom2,
Surface,
Bath1_L2,
NoSun,
NoWind,
autocalculate,
autocalculate,
2.635132231027506,
5.757960576454133,
4.6,
2.635132231027506,
8.589744466513542,
4.6,
2.635132231027506,
8.589744466513542,
2.3,
2.635132231027506,
5.757960576454133,
2.3;

SurfaceProperty:ConvectionCoefficients,
Bedroom2_L4,
Inside,
Value,
8.29,
,
,
Outside,
Value,
8.29;

SurfaceProperties:VaporCoefficients,
Bedroom2_L4,
Yes,
2e-08,
Yes,
2e-08;

BuildingSurface:Detailed,
Bedroom2_Ceiling,
Ceiling,
LoftCeiling_RandomU,
Bedroom2,
Surface,
Attic_Floor_qb100_qc010,
NoSun,
NoWind,
autocalculate,
autocalculate,
2.635132231027506,
5.757960576454133,
4.6,
2.635132231027506,
4.814032613100996,
4.6,
6.607495743471955,
4.814032613100996,
4.6,
6.607495743471955,
5.757960576454133,
4.6;

SurfaceProperty:ConvectionCoefficients,
Bedroom2_Ceiling,
Inside,
Value,
8.29,
,
,
Outside,
Value,
8.29;

BuildingSurface:Detailed,
Bedroom2_Floor_qa010,
Floor,
Suspended_Wooden_Floor,
Bedroom2,
Surface,
Kitchen_Ceiling_qb100,
NoSun,
NoWind,
autocalculate,
autocalculate,
2.635132231027506,
5.757960576454133,
2.3,
3.3561883141444855,
5.757960576454133,
2.3,
3.3561883141444855,
4.814032613100996,
2.3,
2.635132231027506,
4.814032613100996,
2.3;

AirflowNetwork:MultiZone:Surface,
Bedroom2_Floor_qa010,
Bedroom2_Floor_qa010_Crack,
,
1.0,
Constant,
,
1.0,
0.0,
100.0,
0.0,
300000.0;

AirflowNetwork:MultiZone:Surface:Crack,
Bedroom2_Floor_qa010_Crack,
0.00031300335373118856,
0.66,
RCC1;

BuildingSurface:Detailed,
Bedroom2_L4_qa001,
Wall,
Single_Brick_Internal_Wall,
Bedroom2,
Surface,
TopHall+_L2,
NoSun,
NoWind,
autocalculate,
autocalculate,
2.635132231027506,
4.814032613100996,
4.6,
2.635132231027506,
5.757960576454133,
4.6,
2.635132231027506,
5.757960576454133,
2.3,
2.635132231027506,
4.814032613100996,
2.3;

SurfaceProperty:ConvectionCoefficients,
Bedroom2_L4_qa001,
Inside,
Value,
8.29,
,
,
Outside,
Value,
8.29;

SurfaceProperties:VaporCoefficients,
Bedroom2_L4_qa001,
Yes,
2e-08,
Yes,
2e-08;

AirflowNetwork:MultiZone:Surface,
Bedroom2_L4_qa001,
Bedroom2_L4_qa001_Crack,
,
1.0,
Constant,
,
1.0,
0.0,
100.0,
0.0,
300000.0;

AirflowNetwork:MultiZone:Surface:Crack,
Bedroom2_L4_qa001_Crack,
0.0011837217741106768,
0.66,
RCC1;

FenestrationSurface:Detailed,
Bedroom2_door_TopHall,
Door,
Wooden_Door,
Bedroom2_L4_qa001,
TopHall_door_Bedroom2,
,
,
,
,
autocalculate,
2.635132231027506,
4.8859965947775645,
4.3,
2.6351,
5.686,
4.3,
2.6351,
5.686,
2.3,
2.6351,
4.886,
2.3;

AirflowNetwork:MultiZone:Surface,
Bedroom2_door_TopHall,
Bedroom2_door_TopHall_Opening,
,
1.0,
Constant,
,
1.0,
0.0,
100.0,
0.0,
300000.0,
Doors_AWESOME_Bedroom2_Door_TopHall;

AirflowNetwork:MultiZone:Component:DetailedOpening,
Bedroom2_door_TopHall_Opening,
0.009,
0.5,
NonPivoted,
0.0,
2,
0.0,
0.001,
0.0,
0.0,
0.0,
1.0,
0.78,
1.0,
1.0,
0.0;

BuildingSurface:Detailed,
Bedroom2_Ceiling_qc010,
Ceiling,
LoftCeiling_RandomU,
Bedroom2,
Surface,
Attic_Floor_qc100,
NoSun,
NoWind,
autocalculate,
autocalculate,
2.635132231027506,
8.589744466513542,
4.6,
2.635132231027506,
5.757960576454133,
4.6,
6.607495743471955,
5.757960576454133,
4.6,
6.607495743471955,
8.589744466513542,
4.6;

SurfaceProperty:ConvectionCoefficients,
Bedroom2_Ceiling_qc010,
Inside,
Value,
8.29,
,
,
Outside,
Value,
8.29;

BuildingSurface:Detailed,
Bedroom2_Floor_qa010_qc010,
Floor,
Suspended_Wooden_Floor,
Bedroom2,
Surface,
Kitchen_Ceiling_qc100,
NoSun,
NoWind,
autocalculate,
autocalculate,
2.635132231027506,
8.589744466513542,
2.3,
3.3561883141444855,
8.589744466513542,
2.3,