Version,
8.1.0.009;

SimulationControl,
No,
No,
No,
Yes,
Yes;

Building,
Lowrise-Pre1990,
0.0,
Urban,
0.04,
0.4,
FullExterior,
25,
6;

SurfaceConvectionAlgorithm:Inside,
TARP;

SurfaceConvectionAlgorithm:Outside,
TARP;

HeatBalanceAlgorithm,
ConductionTransferFunction,
200;

Timestep,
6;

RunPeriod,
,
1,
1,
12,
31,
Monday,
Yes,
Yes,
No,
Yes,
Yes,
1;

Site:GroundTemperature:BuildingSurface,
8.3,
6.4,
5.8,
6.3,
8.9,
11.7,
14.4,
16.4,
17,
16.1,
13.8,
11;

ScheduleTypeLimits,
Control,
0,
4,
Discrete,
Control;

ScheduleTypeLimits,
Thermal,
-20.0,
60.0,
Continuous,
Temperature;

ScheduleTypeLimits,
Fraction,
0.0,
10.0,
Continuous,
Dimensionless;

ScheduleTypeLimits,
Number,
0.0,
1000000000.0,
Continuous,
Dimensionless;

Material,
Concrete_0.5,
Rough,
0.5,
1.6,
2300,
850,
0.9,
0.7,
0.7;

Material,
Brick_0.11,
Rough,
0.11,
0.6,
1712,
850,
0.9,
0.7,
0.7;

Material,
Spruce_0.04,
Rough,
0.04,
0.09,
455,
1500,
0.9,
0.7,
0.7;

Material,
Gypsum_0.01,
Rough,
0.01,
0.2,
850,
850,
0.9,
0.6,
0.7;

Material,
Concrete_0.04,
Rough,
0.04,
1.6,
2300,
850,
0.9,
0.7,
0.7;

Material,
Brick_0.1,
Rough,
0.1,
0.6,
1712,
850,
0.9,
0.7,
0.7;

Material,
Concrete_0.01,
Rough,
0.01,
1.6,
2300,
850,
0.9,
0.7,
0.7;

Material,
Spruce_0.0125,
Rough,
0.0125,
0.09,
455,
1500,
0.9,
0.7,
0.7;

Material,
AirGap_0.1,
Rough,
0.1,
0.02485,
1.204,
1004,
0.9,
0.7,
0.7;

Material,
AirGapExt_0.01,
Rough,
0.01,
0.02485,
1.204,
1004,
0.9,
0.7,
0.7;

Material,
Spruce_0.05,
Rough,
0.05,
0.09,
455,
1500,
0.9,
0.7,
0.7;

Material,
GlassFiberFloor_0.0065,
Rough,
0.0065,
0.04,
80,
840,
0.9,
0.7,
0.7;

Material,
Gypsum_0.1,
Rough,
0.1,
0.2,
850,
850,
0.9,
0.6,
0.7;

Material,
AirGapRoof_0.0001,
Rough,
0.0001,
0.02485,
1.204,
1004,
0.9,
0.7,
0.7;

WindowMaterial:Glazing,
Glass_0.01,
SpectralAverage,
,
0.01,
0.775,
0.071,
0.071,
0.881,
0.08,
0.08,
0.0,
0.84,
0.84,
0.9;

WindowMaterial:Gas,
GasWin_0.01,
Air,
0.01;

WindowMaterial:Shade,
Drapes_0.004,
0.05,
0.3,
0.05,
0.3,
0.9,
0.0,
0.004,
0.1,
0.05,
1.0,
1.0,
0.0,
0.0,
0.0;

Construction,
Single_Brick_Internal_Wall,
Gypsum_0.01,
Brick_0.1,
Gypsum_0.01;

Construction,
Suspended_Wooden_Ceiling,
Spruce_0.05,
AirGap_0.1,
Gypsum_0.01;

Construction,
3.10_Roof,
Concrete_0.04,
Gypsum_0.01;

Construction,
Suspended_Wooden_Floor,
Gypsum_0.01,
AirGap_0.1,
Spruce_0.05;

Construction,
LoftCeiling_RandomU,
Gypsum_0.01,
AirGapRoof_0.0001,
Spruce_0.0125,
Concrete_0.01;

Construction,
LoftFloor_RandomU,
Concrete_0.01,
Spruce_0.0125,
AirGapRoof_0.0001,
Gypsum_0.01;

Construction,
FLOOR_RandomU,
Concrete_0.5,
GlassFiberFloor_0.0065,
Gypsum_0.1;

Construction,
Wooden_Door,
Spruce_0.04;

Construction,
Window_RandomU,
Glass_0.01,
GasWin_0.01,
Glass_0.01;

Construction,
CAVITY_RandomU,
Brick_0.11,
AirGapExt_0.01,
Brick_0.11,
Gypsum_0.01;

Construction,
Curtains,
Glass_0.01,
GasWin_0.01,
Glass_0.01,
Drapes_0.004;

AirflowNetwork:SimulationControl,
AF1,
MultiZoneWithoutDistribution,
Input,
WParray,
ExternalNode,
LowRise,
500,
ZeroNodePressures,
0.0001,
1.E-6,
-0.5,
0,
1;

AirflowNetwork:MultiZone:ReferenceCrackConditions,
RCC1,
20,
101325,
0;

AirflowNetwork:MultiZone:WindPressureCoefficientArray,
WParray,
0.0,
30.0,
60.0,
90.0,
120.0,
150.0,
180.0,
210.0,
240.0,
270.0,
300.0,
330.0,
360.0;

AirflowNetwork:MultiZone:WindPressureCoefficientValues,
Ceiling,
WParray,
0,
0,
0,
0,
0,
0,
0,
0,
0,
0,
0,
0,
0;

AirflowNetwork:MultiZone:WindPressureCoefficientValues,
L2,
WParray,
-0.34,
0.183,
0.48,
0.603,
0.603,
0.48,
0.183,
-0.34,
-0.632,
-0.37,
-0.452,
-0.37,
-0.632;

AirflowNetwork:MultiZone:WindPressureCoefficientValues,
L1,
WParray,
0.603,
0.48,
0.183,
-0.34,
-0.632,
-0.37,
-0.452,
-0.37,
-0.632,
-0.34,
0.183,
0.48,
0.603;

AirflowNetwork:MultiZone:WindPressureCoefficientValues,
L3,
WParray,
-0.452,
-0.37,
-0.632,
-0.34,
0.183,
0.48,
0.603,
0.48,
0.183,
-0.34,
-0.632,
-0.37,
-0.452;

AirflowNetwork:MultiZone:WindPressureCoefficientValues,
Floor,
WParray,
0,
0,
0,
0,
0,
0,
0,
0,
0,
0,
0,
0,
0;

AirflowNetwork:MultiZone:WindPressureCoefficientValues,
L4,
WParray,
-0.34,
-0.632,
-0.37,
-0.452,
-0.37,
-0.632,
-0.34,
0.183,
0.48,
0.603,
0.603,
0.48,
0.183;

ZoneAirContaminantBalance,
No,
,
Yes,
Gas_PM25_test_Outside_Contaminant_;

GlobalGeometryRules,
UpperLeftCorner,
CounterClockwise,
Relative;

Shading:Building:Detailed,
House1_0,
,
4,
19.8,
7.0,
0.0,
19.8,
7.0,
7.8,
9.9,
7.0,
7.8,
9.9,
7.0,
-0.0;

Shading:Building:Detailed,
House1_1,
,
4,
9.9,
7.0,
0.0,
9.9,
7.0,
7.8,
9.9,
0.0,
7.8,
9.9,
0.0,
-0.0;

Shading:Building:Detailed,
House1_2,
,
4,
9.9,
0.0,
0.0,
9.9,
0.0,
7.8,
19.8,
0.0,
7.8,
19.8,
0.0,
-0.0;

Shading:Building:Detailed,
House1_3,
,
4,
19.8,
0.0,
0.0,
19.8,
0.0,
7.8,
19.8,
7.0,
7.8,
19.8,
7.0,
-0.0;

Shading:Building:Detailed,
House1_RoofShade_0,
,
4,
19.8,
3.5,
10.4,
9.899999999999995,
3.5,
10.4,
9.899999999999995,
7.0,
7.8,
19.8,
7.0,
7.8;

Shading:Building:Detailed,
House1_RoofShade_1,
,
4,
9.899999999999995,
3.5,
10.4,
19.8,
3.5,
10.4,
19.8,
0.0,
7.8,
9.899999999999995,
0.0,
7.8;

Zone,
Bedroom1_TF,
0.0,
0.0,
0.0,
0.0;

AirflowNetwork:MultiZone:Zone,
Bedroom1_TF,
Constant,
,
1.0,
0.0,
100.0,
0.0,
300000.0;

ZoneContaminantSourceAndSink:Generic:DepositionRateSink,
Gas_PM25_test_Bedroom1_TF_DepRate_,
Bedroom1_TF,
5e-05,
Gas_PM25_test_Bedroom1_TF_DepRate_;

BuildingSurface:Detailed,
Bedroom1_TF_Floor,
Floor,
Suspended_Wooden_Floor,
Bedroom1_TF,
Surface,
Bedroom1_MF_Ceiling,
NoSun,
NoWind,
autocalculate,
autocalculate,
0.0,
7.0,
5.2,
3.6,
7.0,
5.2,
3.6,
3.6,
5.2,
0.0,
3.6,
5.2;

BuildingSurface:Detailed,
Bedroom1_TF_L1,
Wall,
CAVITY_RandomU,
Bedroom1_TF,
Outdoors,
,
SunExposed,
WindExposed,
autocalculate,
autocalculate,
0.0,
7.0,
7.700000000000001,
3.6,
7.0,
7.7,
3.6,
7.0,
5.3,
0.0,
7.0,
5.3;

SurfaceProperty:ConvectionCoefficients,
Bedroom1_TF_L1,
Inside,
Value,
8.29,
,
,
Outside,
Value,
29.3;

SurfaceProperties:VaporCoefficients,
Bedroom1_TF_L1,
Yes,
6.25e-08,
Yes,
2e-08;

FenestrationSurface:Detailed,
Bedroom1_TF_L1_window,
Window,
Window_RandomU,
Bedroom1_TF_L1,
,
autocalculate,
,
,
,
autocalculate,
0.9,
7.0,
7.100000000000001,
2.7,
7.0,
7.1,
2.7,
7.0,
5.9,
0.9,
7.0,
5.9;

AirflowNetwork:MultiZone:Surface,
Bedroom1_TF_L1_window,
Bedroom1_TF_L1_window_Opening,
Bedroom1_TF_L1_window_extN,
1.0,
Temperature,
Window_temperatureX_Bedroom1_TF_Window_Temperature_,
1.0,
0.0,
100.0,
0.0,
300000.0,
Window_opening_pensioner_Bedroom1_TF_Window_;

AirflowNetwork:MultiZone:ExternalNode,
Bedroom1_TF_L1_window_extN,
6.500000000000002,
L1;

AirflowNetwork:MultiZone:Component:DetailedOpening,
Bedroom1_TF_L1_window_Opening,
1e-08,
0.66,
HorizontallyPivoted,
0.0,
2,
0.0,
0.6,
0.0,
0.0,
0.0,
1.0,
0.5,
1.0,
0.33333,
0.66666;

BuildingSurface:Detailed,
Bedroom1_TF_L2,
Wall,
Single_Brick_Internal_Wall,
Bedroom1_TF,
Surface,
Living_TF_L4,
NoSun,
NoWind,
autocalculate,
autocalculate,
3.6,
7.0,
7.800000000000001,
3.6,
3.6,
7.8,
3.6,
3.6,
5.2,
3.6,
7.0,
5.2;

SurfaceProperty:ConvectionCoefficients,
Bedroom1_TF_L2,
Inside,
Value,
8.29,
,
,
Outside,
Value,
8.29;

SurfaceProperties:VaporCoefficients,
Bedroom1_TF_L2,
Yes,
2e-08,
Yes,
2e-08;

AirflowNetwork:MultiZone:Surface,
Bedroom1_TF_L2,
Bedroom1_TF_L2_Crack,
,
1.0,
Constant,
,
1.0,
0.0,
100.0,
0.0,
300000.0;

AirflowNetwork:MultiZone:Surface:Crack,
Bedroom1_TF_L2_Crack,
0.004471837813306999,
0.66,
RCC1;

BuildingSurface:Detailed,
Bedroom1_TF_L4,
Wall,
CAVITY_RandomU,
Bedroom1_TF,
Adiabatic,
Bedroom1_TF_L4,
NoSun,
NoWind,
autocalculate,
autocalculate,
0.0,
3.6,
7.800000000000001,
0.0,
7.0,
7.8,
0.0,
7.0,
5.2,
0.0,
3.6,
5.2;

SurfaceProperty:ConvectionCoefficients,
Bedroom1_TF_L4,
Inside,
Value,
8.29,
,
,
Outside,
Value,
29.3;

SurfaceProperties:VaporCoefficients,
Bedroom1_TF_L4,
Yes,
6.25e-08,
Yes,
2e-08;

BuildingSurface:Detailed,
Bedroom1_TF_Ceiling,
Ceiling,
3.10_Roof,
Bedroom1_TF,
Outdoors,
,
SunExposed,
WindExposed,
autocalculate,
autocalculate,
0.0,
7.0,
7.800000000000001,
0.0,
3.6,
7.8,
3.6,
3.6,
7.8,
3.6,
7.0,
7.8;

SurfaceProperty:ConvectionCoefficients,
Bedroom1_TF_Ceiling,
Inside,
Value,
8.29,
,
,
Outside,
Value,
8.29;

BuildingSurface:Detailed,
Bedroom1_TF_L3_qa001,
Wall,
Single_Brick_Internal_Wall,
Bedroom1_TF,
Surface,
Storage_TF_L1,
NoSun,
NoWind,
autocalculate,
autocalculate,
2.5,
3.6,
7.800000000000001,
0.0,
3.6,
7.8,
0.0,
3.6,
5.2,
2.5,
3.6,
5.2;

SurfaceProperty:ConvectionCoefficients,
Bedroom1_TF_L3_qa001,
Inside,
Value,
8.29,
,
,
Outside,
Value,
8.29;

SurfaceProperties:VaporCoefficients,
Bedroom1_TF_L3_qa001,
Yes,
2e-08,
Yes,
2e-08;

AirflowNetwork:MultiZone:Surface,
Bedroom1_TF_L3_qa001,
Bedroom1_TF_L3_qa001_Crack,
,
1.0,
Constant,
,
1.0,
0.0,
100.0,
0.0,
300000.0;

AirflowNetwork:MultiZone:Surface:Crack,
Bedroom1_TF_L3_qa001_Crack,
0.003288116039196324,
0.66,
RCC1;

BuildingSurface:Detailed,
Bedroom1_TF+_Floor,
Floor,
Suspended_Wooden_Floor,
Bedroom1_TF,
Surface,
Bedroom1_MF+_Ceiling,
NoSun,
NoWind,
autocalculate,
autocalculate,
2.5,
3.6,
5.2,
3.6,
3.6,
5.2,
3.6,
2.6,
5.2,
2.5,
2.6,
5.2;

BuildingSurface:Detailed,
Bedroom1_TF+_L2,
Wall,
Single_Brick_Internal_Wall,
Bedroom1_TF,
Surface,
Living_TF_L4_qa001,
NoSun,
NoWind,
autocalculate,
autocalculate,
3.6,
3.6,
7.800000000000001,
3.6,
2.6,
7.8,
3.6,
2.6,
5.2,
3.6,
3.6,
5.2;

SurfaceProperty:ConvectionCoefficients,
Bedroom1_TF+_L2,
Inside,
Value,
8.29,
,
,
Outside,
Value,
8.29;

SurfaceProperties:VaporCoefficients,
Bedroom1_TF+_L2,
Yes,
2e-08,
Yes,
2e-08;

AirflowNetwork:MultiZone:Surface,
Bedroom1_TF+_L2,
Bedroom1_TF+_L2_Crack,
,
1.0,
Constant,
,
1.0,
0.0,
100.0,
0.0,
300000.0;

AirflowNetwork:MultiZone:Surface:Crack,
Bedroom1_TF+_L2_Crack,
0.0013152464156785293,
0.66,
RCC1;

BuildingSurface:Detailed,
Bedroom1_TF+_L3,
Wall,
Single_Brick_Internal_Wall,
Bedroom1_TF,
Surface,
Hall_TF_L1,
NoSun,
NoWind,
autocalculate,
autocalculate,
3.6,
2.6,
7.800000000000001,
2.5,
2.6,
7.8,
2.5,
2.6,
5.2,
3.6,
2.6,
5.2;

SurfaceProperty:ConvectionCoefficients,
Bedroom1_TF+_L3,
Inside,
Value,
8.29,
,
,
Outside,
Value,
8.29;

SurfaceProperties:VaporCoefficients,
Bedroom1_TF+_L3,
Yes,
2e-08,
Yes,
2e-08;

AirflowNetwork:MultiZone:Surface,
Bedroom1_TF+_L3,
Bedroom1_TF+_L3_Crack,
,
1.0,
Constant,
,
1.0,
0.0,
100.0,
0.0,
300000.0;

AirflowNetwork:MultiZone:Surface:Crack,
Bedroom1_TF+_L3_Crack,
0.0014467710572463822,
0.66,
RCC1;

FenestrationSurface:Detailed,
Bedroom1_TF_door_Hall_TF,
Door,
Wooden_Door,
Bedroom1_TF+_L3,
Hall_TF_door_Bedroom1_TF,
,
,
,
,
autocalculate,
3.45,
2.6,
7.200000000000001,
2.65,
2.6,
7.2,
2.65,
2.6,
5.2,
3.45,
2.6,
5.2;

AirflowNetwork:MultiZone:Surface,
Bedroom1_TF_door_Hall_TF,
Bedroom1_TF_door_Hall_TF_Opening,
,
1.0,
Constant,
,
1.0,
0.0,
100.0,
0.0,
300000.0,
Doors_AWESOME_Bedroom1_TF_Door_Hall_TF;

AirflowNetwork:MultiZone:Component:DetailedOpening,
Bedroom1_TF_door_Hall_TF_Opening,
0.009,
0.5,
NonPivoted,
0.0,
2,
0.0,
0.001,
0.0,
0.0,
0.0,
1.0,
0.78,
1.0,
1.0,
0.0;

BuildingSurface:Detailed,
Bedroom1_TF+_L4,
Wall,
Single_Brick_Internal_Wall,
Bedroom1_TF,
Surface,
Storage_TF_L2,
NoSun,
NoWind,
autocalculate,
autocalculate,
2.5,
2.6,
7.800000000000001,
2.5,
3.6,
7.8,
2.5,
3.6,
5.2,
2.5,
2.6,
5.2;

SurfaceProperty:ConvectionCoefficients,
Bedroom1_TF+_L4,
Inside,
Value,
8.29,
,
,
Outside,
Value,
8.29;

SurfaceProperties:VaporCoefficients,
Bedroom1_TF+_L4,
Yes,
2e-08,
Yes,
2e-08;

AirflowNetwork:MultiZone:Surface,
Bedroom1_TF+_L4,
Bedroom1_TF+_L4_Crack,
,
1.0,
Constant,
,
1.0,
0.0,
100.0,
0.0,
300000.0;

AirflowNetwork:MultiZone:Surface:Crack,
Bedroom1_TF+_L4_Crack,
0.0013152464156785293,
0.66,
RCC1;

BuildingSurface:Detailed,
Bedroom1_TF+_Ceiling,
Ceiling,
3.10_Roof,
Bedroom1_TF,
Outdoors,
,
SunExposed,
WindExposed,
autocalculate,
autocalculate,
2.5,
3.6,
7.800000000000001,
2.5,
2.6,
7.8,
3.6,
2.6,
7.8,
3.6,
3.6,
7.8;

SurfaceProperty:ConvectionCoefficients,
Bedroom1_TF+_Ceiling,
Inside,
Value,
8.29,
,
,
Outside,
Value,
8.29;

BuildingSurface:Detailed,
Bedroom1_TF_L1_pu,
Wall,
CAVITY_RandomU,
Bedroom1_TF,
Outdoors,
,
SunExposed,
WindExposed,
autocalculate,
autocalculate,
0.0,
7.0,
7.800000000000001,
3.6,
7.0,
7.8,
3.6,
7.0,
7.7,
0.0,
7.0,
7.7;

SurfaceProperty:ConvectionCoefficients,
Bedroom1_TF_L1_pu,
Inside,
Value,
8.29,
,
,
Outside,
Value,
29.3;

SurfaceProperties:VaporCoefficients,
Bedroom1_TF_L1_pu,
Yes,
6.25e-08,
Yes,
2e-08;

AirflowNetwork:MultiZone:Surface,
Bedroom1_TF_L1_pu,
Bedroom1_TF_L1_pu_Crack,
Bedroom1_TF_L1_pu_extN,
1.0,
Constant,
,
1.0,
0.0,
100.0,
0.0,
300000.0;

AirflowNetwork:MultiZone:Surface:Crack,
Bedroom1_TF_L1_pu_Crack,
0.0021853325060504796,
0.66,
RCC1;

AirflowNetwork:MultiZone:ExternalNode,
Bedroom1_TF_L1_pu_extN,
7.750000000000001,
L1;

BuildingSurface:Detailed,
Bedroom1_TF_L1_pd,
Wall,
CAVITY_RandomU,
Bedroom1_TF,
Outdoors,
,
SunExposed,
WindExposed,
autocalculate,
autocalculate,
0.0,
7.0,
5.300000000000001,
3.6,
7.0,
5.3,
3.6,
7.0,
5.2,
0.0,
7.0,
5.2;

SurfaceProperty:ConvectionCoefficients,
Bedroom1_TF_L1_pd,
Inside,
Value,
8.29,
,
,
Outside,
Value,
29.3;

SurfaceProperties:VaporCoefficients,
Bedroom1_TF_L1_pd,
Yes,
6.25e-08,
Yes,
2e-08;

AirflowNetwork:MultiZone:Surface,
Bedroom1_TF_L1_pd,
Bedroom1_TF_L1_pd_Crack,
Bedroom1_TF_L1_pd_extN,
1.0,
Constant,
,
1.0,
0.0,
100.0,
0.0,
300000.0;

AirflowNetwork:MultiZone:Surface:Crack,
Bedroom1_TF_L1_pd_Crack,
0.0021853325060504796,
0.66,
RCC1;

AirflowNetwork:MultiZone:ExternalNode,
Bedroom1_TF_L1_pd_extN,
5.250000000000001,
L1;

People,
Pensioner2_Bedroom1_TF,
Bedroom1_TF,
Pensioner2_Bedroom1_TF_Presence_,
People,
1,
,
,
0.1,
autocalculate,
Pensioner2_Bedroom1_TF_Metabolism_,
3.82e-08,
No,
ZoneAveraged;

People,
Pensioner1_Bedroom1_TF,
Bedroom1_TF,
Pensioner1_Bedroom1_TF_Presence_,
People,
1,
,
,
0.1,
autocalculate,
Pensioner1_Bedroom1_TF_Metabolism_,
3.82e-08,
No,
ZoneAveraged;

ElectricEquipment,
Bedroom1_TF_Pensioner1_Bedroom1_TF_Appliance_NIST_MOBILEPHONES_NIST_MOBILEPHONES,
Bedroom1_TF,
Pensioner1_Bedroom1_TF_Appliance_NIST_MOBILEPHONES,
EquipmentLevel,
0.0,
,
,
0.16,
0.367,
0.10600000000000001;

ElectricEquipment,
Bedroom1_TF_Pensioner2_Bedroom1_TF_Appliance_NIST_MOBILEPHONES_NIST_MOBILEPHONES,
Bedroom1_TF,
Pensioner2_Bedroom1_TF_Appliance_NIST_MOBILEPHONES,
EquipmentLevel,
0.0,
,
,
0.16,
0.367,
0.10600000000000001;

ZoneControl:Thermostat,
Bedroom1_TF_Thermostat,
Bedroom1_TF,
Heat_CIBSE_Pensioner_Bedroom1_TF_Heating_,
ThermostatSetpoint:SingleHeating,
Bedroom1_TF_stat;

ThermostatSetpoint:SingleHeating,
Bedroom1_TF_stat,
ComfX_Bedroom1_TF_Comfort_;

ZoneHVAC:Baseboard:Convective:Electric,
Bedroom1_TF_heater,
Heat_CIBSE_Pensioner_Bedroom1_TF_Heating_,
2872.68678662603,
1.0;

ZoneHVAC:EquipmentList,
Bedroom1_TF_equiplist,
ZoneHVAC:Baseboard:Convective:Electric,
Bedroom1_TF_heater,
1,
1;

ZoneHVAC:EquipmentConnections,
Bedroom1_TF,
Bedroom1_TF_equiplist,
,
,
Bedroom1_TF_Air,
Bedroom1_TF_Outlet;

Zone,
Bedroom1_MF,
0.0,
0.0,
0.0,
0.0;

AirflowNetwork:MultiZone:Zone,
Bedroom1_MF,
Constant,
,
1.0,
0.0,
100.0,
0.0,
300000.0;

ZoneContaminantSourceAndSink:Generic:DepositionRateSink,
Gas_PM25_test_Bedroom1_MF_DepRate_,
Bedroom1_MF,
5e-05,
Gas_PM25_test_Bedroom1_MF_DepRate_;

BuildingSurface:Detailed,
Bedroom1_MF_Floor,
Floor,
Suspended_Wooden_Floor,
Bedroom1_MF,
Surface,
Bedroom1_GF_Ceiling,
NoSun,
NoWind,
autocalculate,
autocalculate,
0.0,
7.0,
2.6,
3.6,
7.0,
2.6,
3.6,
3.6,
2.6,
0.0,
3.6,
2.6;

BuildingSurface:Detailed,
Bedroom1_MF_L1,
Wall,
CAVITY_RandomU,
Bedroom1_MF,
Outdoors,
,
SunExposed,
WindExposed,
autocalculate,
autocalculate,
0.0,
7.0,
5.1000000000000005,
3.6,
7.0,
5.1,
3.6,
7.0,
2.7,
0.0,
7.0,
2.7;

SurfaceProperty:ConvectionCoefficients,
Bedroom1_MF_L1,
Inside,
Value,
8.29,
,
,
Outside,
Value,
29.3;

SurfaceProperties:VaporCoefficients,
Bedroom1_MF_L1,
Yes,
6.25e-08,
Yes,
2e-08;

FenestrationSurface:Detailed,
Bedroom1_MF_L1_window,
Window,
Window_RandomU,
Bedroom1_MF_L1,
,
autocalculate,
,
,
,
autocalculate,
0.9,
7.0,
4.500000000000001,
2.7,
7.0,
4.5,
2.7,
7.0,
3.3,
0.9,
7.0,
3.3;

AirflowNetwork:MultiZone:Surface,
Bedroom1_MF_L1_window,
Bedroom1_MF_L1_window_Opening,
Bedroom1_MF_L1_window_extN,
1.0,
Temperature,
Window_temperatureX_Bedroom1_MF_Window_Temperature_,
1.0,
0.0,
100.0,
0.0,
300000.0,
Window_opening_pensioner_Bedroom1_MF_Window_;

AirflowNetwork:MultiZone:ExternalNode,
Bedroom1_MF_L1_window_extN,
3.900000000000001,
L1;

AirflowNetwork:MultiZone:Component:DetailedOpening,
Bedroom1_MF_L1_window_Opening,
1e-08,
0.66,
HorizontallyPivoted,
0.0,
2,
0.0,
0.6,
0.0,
0.0,
0.0,
1.0,
0.5,
1.0,
0.33333,
0.66666;

BuildingSurface:Detailed,
Bedroom1_MF_L2,
Wall,
Single_Brick_Internal_Wall,
Bedroom1_MF,
Surface,
Living_MF_L4,
NoSun,
NoWind,
autocalculate,
autocalculate,
3.6,
7.0,
5.2,
3.6,
3.6,
5.2,
3.6,
3.6,
2.6,
3.6,
7.0,
2.6;

SurfaceProperty:ConvectionCoefficients,
Bedroom1_MF_L2,
Inside,
Value,
8.29,
,
,
Outside,
Value,
8.29;

SurfaceProperties:VaporCoefficients,
Bedroom1_MF_L2,
Yes,
2e-08,
Yes,
2e-08;

AirflowNetwork:MultiZone:Surface,
Bedroom1_MF_L2,
Bedroom1_MF_L2_Crack,
,
1.0,
Constant,
,
1.0,
0.0,
100.0,
0.0,
300000.0;

AirflowNetwork:MultiZone:Surface:Crack,
Bedroom1_MF_L2_Crack,
0.004471837813306999,
0.66,
RCC1;

BuildingSurface:Detailed,
Bedroom1_MF_L4,
Wall,
CAVITY_RandomU,
Bedroom1_MF,
Adiabatic,
Bedroom1_MF_L4,
NoSun,
NoWind,
autocalculate,
autocalculate,
0.0,
3.6,
5.2,
0.0,
7.0,
5.2,
0.0,
7.0,
2.6,
0.0,
3.6,
2.6;

SurfaceProperty:ConvectionCoefficients,
Bedroom1_MF_L4,
Inside,
Value,
8.29,
,
,
Outside,
Value,
29.3;

SurfaceProperties:VaporCoefficients,
Bedroom1_MF_L4,
Yes,
6.25e-08,
Yes,
2e-08;

BuildingSurface:Detailed,
Bedroom1_MF_Ceiling,
Ceiling,
Suspended_Wooden_Ceiling,
Bedroom1_MF,
Surface,
Bedroom1_TF_Floor,
NoSun,
NoWind,
autocalculate,
autocalculate,
0.0,
7.0,
5.2,
0.0,
3.6,
5.2,
3.6,
3.6,
5.2,
3.6,
7.0,
5.2;

AirflowNetwork:MultiZone:Surface,
Bedroom1_MF_Ceiling,
Bedroom1_MF_Ceiling_Crack,
,
1.0,
Constant,
,
1.0,
0.0,
100.0,
0.0,
300000.0;

AirflowNetwork:MultiZone:Surface:Crack,
Bedroom1_MF_Ceiling_Crack,
0.006191775433809691,
0.66,
RCC1;

BuildingSurface:Detailed,
Bedroom1_MF_L3_qa001,
Wall,
Single_Brick_Internal_Wall,
Bedroom1_MF,
Surface,
Storage_MF_L1,
NoSun,
NoWind,
autocalculate,
autocalculate,
2.5,
3.6,
5.2,
0.0,
3.6,
5.2,
0.0,
3.6,
2.6,
2.5,
3.6,
2.6;

SurfaceProperty:ConvectionCoefficients,
Bedroom1_MF_L3_qa001,
Inside,
Value,
8.29,
,
,
Outside,
Value,
8.29;

SurfaceProperties:VaporCoefficients,
Bedroom1_MF_L3_qa001,
Yes,
2e-08,
Yes,
2e-08;

AirflowNetwork:MultiZone:Surface,
Bedroom1_MF_L3_qa001,
Bedroom1_MF_L3_qa001_Crack,
,
1.0,
Constant,
,
1.0,
0.0,
100.0,
0.0,
300000.0;

AirflowNetwork:MultiZone:Surface:Crack,
Bedroom1_MF_L3_qa001_Crack,
0.003288116039196323,
0.66,
RCC1;

BuildingSurface:Detailed,
Bedroom1_MF+_Floor,
Floor,
Suspended_Wooden_Floor,
Bedroom1_MF,
Surface,
Bedroom1_GF+_Ceiling,
NoSun,
NoWind,
autocalculate,
autocalculate,
2.5,
3.6,
2.6,
3.6,
3.6,
2.6,
3.6,
2.6,
2.6,
2.5,
2.6,
2.6;

BuildingSurface:Detailed,
Bedroom1_MF+_L2,
Wall,
Single_Brick_Internal_Wall,
Bedroom1_MF,
Surface,
Living_MF_L4_qa001,
NoSun,
NoWind,
autocalculate,
autocalculate,
3.6,
3.6,
5.2,
3.6,
2.6,
5.2,
3.6,
2.6,
2.6,
3.6,
3.6,
2.6;

SurfaceProperty:ConvectionCoefficients,
Bedroom1_MF+_L2,
Inside,
Value,
8.29,
,
,
Outside,
Value,
8.29;

SurfaceProperties:VaporCoefficients,
Bedroom1_MF+_L2,
Yes,
2e-08,
Yes,
2e-08;

AirflowNetwork:MultiZone:Surface,
Bedroom1_MF+_L2,
Bedroom1_MF+_L2_Crack,
,
1.0,
Constant,
,
1.0,
0.0,
100.0,
0.0,
300000.0;

AirflowNetwork:MultiZone:Surface:Crack,
Bedroom1_MF+_L2_Crack,
0.0013152464156785293,
0.66,
RCC1;

BuildingSurface:Detailed,
Bedroom1_MF+_L3,
Wall,
Single_Brick_Internal_Wall,
Bedroom1_MF,
Surface,
Hall_MF_L1,
NoSun,
NoWind,
autocalculate,
autocalculate,
3.6,
2.6,
5.2,
2.5,
2.6,
5.2,
2.5,
2.6,
2.6,
3.6,
2.6,
2.6;

SurfaceProperty:ConvectionCoefficients,
Bedroom1_MF+_L3,
Inside,
Value,
8.29,
,
,
Outside,
Value,
8.29;

SurfaceProperties:VaporCoefficients,
Bedroom1_MF+_L3,
Yes,
2e-08,
Yes,
2e-08;

AirflowNetwork:MultiZone:Surface,
Bedroom1_MF+_L3,
Bedroom1_MF+_L3_Crack,
,
1.0,
Constant,
,
1.0,
0.0,
100.0,
0.0,
300000.0;

AirflowNetwork:MultiZone:Surface:Crack,
Bedroom1_MF+_L3_Crack,
0.0014467710572463822,
0.66,
RCC1;

FenestrationSurface:Detailed,
Bedroom1_MF_door_Hall_MF,
Door,
Wooden_Door,
Bedroom1_MF+_L3,
Hall_MF_door_Bedroom1_MF,
,
,
,
,
autocalculate,
3.45,
2.6,
4.6,
2.65,
2.6,
4.6,
2.65,
2.6,
2.6,
3.45,
2.6,
2.6;

AirflowNetwork:MultiZone:Surface,
Bedroom1_MF_door_Hall_MF,
Bedroom1_MF_door_Hall_MF_Opening,
,
1.0,
Constant,
,
1.0,
0.0,
100.0,
0.0,
300000.0,
Doors_AWESOME_Bedroom1_MF_Door_Hall_MF;

AirflowNetwork:MultiZone:Component:DetailedOpening,
Bedroom1_MF_door_Hall_MF_Opening,
0.009,
0.5,
NonPivoted,
0.0,
2,
0.0,
0.001,
0.0,
0.0,
0.0,
1.0,
0.78,
1.0,
1.0,
0.0;

BuildingSurface:Detailed,
Bedroom1_MF+_L4,
Wall,
Single_Brick_Internal_Wall,
Bedroom1_MF,
Surface,
Storage_MF_L2,
NoSun,
NoWind,
autocalculate,
autocalculate,
2.5,
2.6,
5.2,
2.5,
3.6,
5.2,
2.5,
3.6,
2.6,
2.5,
2.6,
2.6;

SurfaceProperty:ConvectionCoefficients,
Bedroom1_MF+_L4,
Inside,
Value,
8.29,
,
,
Outside,
Value,
8.29;

SurfaceProperties:VaporCoefficients,
Bedroom1_MF+_L4,
Yes,
2e-08,
Yes,
2e-08;

AirflowNetwork:MultiZone:Surface,
Bedroom1_MF+_L4,
Bedroom1_MF+_L4_Crack,
,
1.0,
Constant,
,
1.0,
0.0,
100.0,
0.0,
300000.0;

AirflowNetwork:MultiZone:Surface:Crack,
Bedroom1_MF+_L4_Crack,
0.0013152464156785293,
0.66,
RCC1;

BuildingSurface:Detailed,
Bedroom1_MF+_Ceiling,
Ceiling,
Suspended_Wooden_Ceiling,
Bedroom1_MF,
Surface,
Bedroom1_TF+_Floor,
NoSun,
NoWind,
autocalculate,
autocalculate,
2.5,
3.6,
5.2,
2.5,
2.6,
5.2,
3.6,
2.6,
5.2,
3.6,
3.6,
5.2;

AirflowNetwork:MultiZone:Surface,
Bedroom1_MF+_Ceiling,
Bedroom1_MF+_Ceiling_Crack,
,
1.0,
Constant,
,
1.0,
0.0,
100.0,
0.0,
300000.0;

AirflowNetwork:MultiZone:Surface:Crack,
Bedroom1_MF+_Ceiling_Crack,
0.000556450406633224,
0.66,
RCC1;

BuildingSurface:Detailed,
Bedroom1_MF_L1_pu,
Wall,
CAVITY_RandomU,
Bedroom1_MF,
Outdoors,
,
SunExposed,
WindExposed,
autocalculate,
autocalculate,
0.0,
7.0,
5.2,
3.6,
7.0,
5.2,
3.6,
7.0,
5.1,
0.0,
7.0,
5.1;

SurfaceProperty:ConvectionCoefficients,
Bedroom1_MF_L1_pu,
Inside,
Value,
8.29,
,
,
Outside,
Value,
29.3;

SurfaceProperties:VaporCoefficients,
Bedroom1_MF_L1_pu,
Yes,
6.25e-08,
Yes,
2e-08;

AirflowNetwork:MultiZone:Surface,
Bedroom1_MF_L1_pu,
Bedroom1_MF_L1_pu_Crack,
Bedroom1_MF_L1_pu_extN,
1.0,
Constant,
,
1.0,
0.0,
100.0,
0.0,
300000.0;

AirflowNetwork:MultiZone:Surface:Crack,
Bedroom1_MF_L1_pu_Crack,
0.0021853325060504796,
0.66,
RCC1;

AirflowNetwork:MultiZone:ExternalNode,
Bedroom1_MF_L1_pu_extN,
5.15,
L1;

BuildingSurface:Detailed,
Bedroom1_MF_L1_pd,
Wall,
CAVITY_RandomU,
Bedroom1_MF,
Outdoors,
,
SunExposed,
WindExposed,
autocalculate,
autocalculate,
0.0,
7.0,
2.7,
3.6,
7.0,
2.7,
3.6,
7.0,
2.6,
0.0,
7.0,
2.6;

SurfaceProperty:ConvectionCoefficients,
Bedroom1_MF_L1_pd,
Inside,
Value,
8.29,
,
,
Outside,
Value,
29.3;

SurfaceProperties:VaporCoefficients,
Bedroom1_MF_L1_pd,
Yes,
6.25e-08,
Yes,
2e-08;

AirflowNetwork:MultiZone:Surface,
Bedroom1_MF_L1_pd,
Bedroom1_MF_L1_pd_Crack,
Bedroom1_MF_L1_pd_extN,
1.0,
Constant,
,
1.0,
0.0,
100.0,
0.0,
300000.0;

AirflowNetwork:MultiZone:Surface:Crack,
Bedroom1_MF_L1_pd_Crack,
0.0021853325060504796,
0.66,
RCC1;

AirflowNetwork:MultiZone:ExternalNode,
Bedroom1_MF_L1_pd_extN,
2.6500000000000004,
L1;

People,
Pensioner1_Bedroom1_MF,
Bedroom1_MF,
Pensioner1_Bedroom1_MF_Presence_,
People,
1,
,
,
0.1,
autocalculate,
Pensioner1_Bedroom1_MF_Metabolism_,
3.82e-08,
No,
ZoneAveraged;

People,
Pensioner2_Bedroom1_MF,
Bedroom1_MF,
Pensioner2_Bedroom1_MF_Presence_,
People,
1,
,
,
0.1,
autocalculate,
Pensioner2_Bedroom1_MF_Metabolism_,
3.82e-08,
No,
ZoneAveraged;

ElectricEquipment,
Bedroom1_MF_Pensioner1_Bedroom1_MF_Appliance_NIST_MOBILEPHONES_NIST_MOBILEPHONES,
Bedroom1_MF,
Pensioner1_Bedroom1_MF_Appliance_NIST_MOBILEPHONES,
EquipmentLevel,
0.0,
,
,
0.16,
0.367,
0.10600000000000001;

ElectricEquipment,
Bedroom1_MF_Pensioner2_Bedroom1_MF_Appliance_NIST_MOBILEPHONES_NIST_MOBILEPHONES,
Bedroom1_MF,
Pensioner2_Bedroom1_MF_Appliance_NIST_MOBILEPHONES,
EquipmentLevel,
0.0,
,
,
0.16,
0.367,
0.10600000000000001;

ZoneControl:Thermostat,
Bedroom1_MF_Thermostat,
Bedroom1_MF,
Heat_CIBSE_Pensioner_Bedroom1_MF_Heating_,
ThermostatSetpoint:SingleHeating,
Bedroom1_MF_stat;

ThermostatSetpoint:SingleHeating,
Bedroom1_MF_stat,
ComfX_Bedroom1_MF_Comfort_;

ZoneHVAC:Baseboard:Convective:Electric,
Bedroom1_MF_heater,
Heat_CIBSE_Pensioner_Bedroom1_MF_Heating_,
2872.68678662603,
1.0;

ZoneHVAC:EquipmentList,
Bedroom1_MF_equiplist,
ZoneHVAC:Baseboard:Convective:Electric,
Bedroom1_MF_heater,
1,
1;

ZoneHVAC:EquipmentConnections,
Bedroom1_MF,
Bedroom1_MF_equiplist,
,
,
Bedroom1_MF_Air,
Bedroom1_MF_Outlet;

Zone,
Shaft,
0.0,
0.0,
0.0,
0.0;

AirflowNetwork:MultiZone:Zone,
Shaft,
Constant,
,
1.0,
0.0,
100.0,
0.0,
300000.0;

ZoneContaminantSourceAndSink:Generic:DepositionRateSink,
Gas_PM25_test_Shaft_DepRate_,
Shaft,
5e-05,
Gas_PM25_test_Shaft_DepRate_;

BuildingSurface:Detailed,
Shaft_Floor,
Floor,
Suspended_Wooden_Floor,
Shaft,
Surface,
Cellar+_Ceiling,
NoSun,
NoWind,
autocalculate,
autocalculate,
7.4,
5.7,
0.0,
9.9,
5.7,
0.0,
9.9,
0.0,
0.0,
7.4,
0.0,
0.0;

BuildingSurface:Detailed,
Shaft_L1,
Wall,
CAVITY_RandomU,
Shaft,
Outdoors,
,
SunExposed,
WindExposed,
autocalculate,
autocalculate,
7.4,
5.7,
7.7,
9.9,
5.7,
7.7,
9.9,
5.7,
0.1,
7.4,
5.7,
0.1;

SurfaceProperty:ConvectionCoefficients,
Shaft_L1,
Inside,
Value,
8.29,
,
,
Outside,
Value,
29.3;

SurfaceProperties:VaporCoefficients,
Shaft_L1,
Yes,
6.25e-08,
Yes,
2e-08;

BuildingSurface:Detailed,
Shaft_L2,
Wall,
CAVITY_RandomU,
Shaft,
Adiabatic,
Shaft_L2,
NoSun,
NoWind,
autocalculate,
autocalculate,
9.9,
5.7,
7.8,
9.9,
0.0,
7.8,
9.9,
0.0,
0.0,
9.9,
5.7,
0.0;

SurfaceProperty:ConvectionCoefficients,
Shaft_L2,
Inside,
Value,
8.29,
,
,
Outside,
Value,
29.3;

SurfaceProperties:VaporCoefficients,
Shaft_L2,
Yes,
6.25e-08,
Yes,
2e-08;

BuildingSurface:Detailed,
Shaft_L3,
Wall,
CAVITY_RandomU,
Shaft,
Outdoors,
,
SunExposed,
WindExposed,
autocalculate,
autocalculate,
9.9,
0.0,
7.7,
7.4,
0.0,
7.7,
7.4,
0.0,
0.1,
9.9,
0.0,
0.1;

SurfaceProperty:ConvectionCoefficients,
Shaft_L3,
Inside,
Value,
8.29,
,
,
Outside,
Value,
29.3;

SurfaceProperties:VaporCoefficients,
Shaft_L3,
Yes,
6.25e-08,
Yes,
2e-08;

BuildingSurface:Detailed,
Shaft_L4,
Wall,
Single_Brick_Internal_Wall,
Shaft,
Surface,
Kitchen_GF_L2,
NoSun,
NoWind,
autocalculate,
autocalculate,
7.4,
0.0,
2.6,
7.4,
2.6,
2.6,
7.4,
2.6,
0.0,
7.4,
0.0,
0.0;

SurfaceProperty:ConvectionCoefficients,
Shaft_L4,
Inside,
Value,
8.29,
,
,
Outside,
Value,
8.29;

SurfaceProperties:VaporCoefficients,
Shaft_L4,
Yes,
2e-08,
Yes,
2e-08;

BuildingSurface:Detailed,
Shaft_Ceiling,
Ceiling,
LoftCeiling_RandomU,
Shaft,
Surface,
Attic_Floor,
NoSun,
NoWind,
autocalculate,
autocalculate,
7.4,
5.7,
7.8,
7.4,
0.0,
7.8,
9.9,
0.0,
7.8,
9.9,
5.7,
7.8;

SurfaceProperty:ConvectionCoefficients,
Shaft_Ceiling,
Inside,
Value,
8.29,
,
,
Outside,
Value,
8.29;

BuildingSurface:Detailed,
Shaft_L4_q2,
Wall,
Single_Brick_Internal_Wall,
Shaft,
Surface,
Living_MF_L2,
NoSun,
NoWind,
autocalculate,
autocalculate,
7.4,
2.6,
5.2,
7.4,
5.7,
5.2,
7.4,
5.7,
2.6,
7.4,
2.6,
2.6;

SurfaceProperty:ConvectionCoefficients,
Shaft_L4_q2,
Inside,
Value,
8.29,
,
,
Outside,
Value,
8.29;

SurfaceProperties:VaporCoefficients,
Shaft_L4_q2,
Yes,
2e-08,
Yes,
2e-08;

BuildingSurface:Detailed,
Shaft_L4_qc001,
Wall,
Single_Brick_Internal_Wall,
Shaft,
Surface,
Kitchen_MF_L2,
NoSun,
NoWind,
autocalculate,
autocalculate,
7.4,
0.0,
5.2,
7.4,
2.6,
5.2,
7.4,
2.6,
2.6,
7.4,
0.0,
2.6;

SurfaceProperty:ConvectionCoefficients,
Shaft_L4_qc001,
Inside,
Value,
8.29,
,
,
Outside,
Value,
8.29;

SurfaceProperties:VaporCoefficients,
Shaft_L4_qc001,
Yes,
2e-08,
Yes,
2e-08;

BuildingSurface:Detailed,
Shaft_L4_qc010,
Wall,
Single_Brick_Internal_Wall,
Shaft,
Surface,
Living_GF_L2,
NoSun,
NoWind,
autocalculate,
autocalculate,
7.4,
2.6,
2.6,
7.4,
5.7,
2.6,
7.4,
5.7,
0.0,
7.4,
2.6,
0.0;

SurfaceProperty:ConvectionCoefficients,
Shaft_L4_qc010,
Inside,
Value,
8.29,
,
,
Outside,
Value,
8.29;

SurfaceProperties:VaporCoefficients,
Shaft_L4_qc010,
Yes,
2e-08,
Yes,
2e-08;

BuildingSurface:Detailed,
Shaft_L4_q2_qc001,
Wall,
Single_Brick_Internal_Wall,
Shaft,
Surface,
Living_TF_L2,
NoSun,
NoWind,
autocalculate,
autocalculate,
7.4,
2.6,
7.8,
7.4,
5.7,
7.8,
7.4,
5.7,
5.2,
7.4,
2.6,
5.2;

SurfaceProperty:ConvectionCoefficients,
Shaft_L4_q2_qc001,
Inside,
Value,
8.29,
,
,
Outside,
Value,
8.29;

SurfaceProperties:VaporCoefficients,
Shaft_L4_q2_qc001,
Yes,
2e-08,
Yes,
2e-08;

BuildingSurface:Detailed,
Shaft_L4_qc001_qc001,
Wall,
Single_Brick_Internal_Wall,
Shaft,
Surface,
Kitchen_TF_L2,
NoSun,
NoWind,
autocalculate,
autocalculate,
7.4,
0.0,
7.8,
7.4,
2.6,
7.8,
7.4,
2.6,
5.2,
7.4,
0.0,
5.2;

SurfaceProperty:ConvectionCoefficients,
Shaft_L4_qc001_qc001,
Inside,
Value,
8.29,
,
,
Outside,
Value,
8.29;

SurfaceProperties:VaporCoefficients,
Shaft_L4_qc001_qc001,
Yes,
2e-08,
Yes,
2e-08;

BuildingSurface:Detailed,
Shaft_L1_pu,
Wall,
CAVITY_RandomU,
Shaft,
Outdoors,
,
SunExposed,
WindExposed,
autocalculate,
autocalculate,
7.4,
5.7,
7.8,
9.9,
5.7,
7.8,
9.9,
5.7,
7.7,
7.4,
5.7,
7.7;

SurfaceProperty:ConvectionCoefficients,
Shaft_L1_pu,
Inside,
Value,
8.29,
,
,
Outside,
Value,
29.3;

SurfaceProperties:VaporCoefficients,
Shaft_L1_pu,
Yes,
6.25e-08,
Yes,
2e-08;

AirflowNetwork:MultiZone:Surface,
Shaft_L1_pu,
Shaft_L1_pu_Crack,
Shaft_L1_pu_extN,
1.0,
Constant,
,
1.0,
0.0,
100.0,
0.0,
300000.0;

AirflowNetwork:MultiZone:Surface:Crack,
Shaft_L1_pu_Crack,
0.0048057080572869336,
0.66,
RCC1;

AirflowNetwork:MultiZone:ExternalNode,
Shaft_L1_pu_extN,
7.75,
L1;

BuildingSurface:Detailed,
Shaft_L1_pd,
Wall,
CAVITY_RandomU,
Shaft,
Outdoors,
,
SunExposed,
WindExposed,
autocalculate,
autocalculate,
7.4,
5.7,
0.1,
9.9,
5.7,
0.1,
9.9,
5.7,
0.0,
7.4,
5.7,
0.0;

SurfaceProperty:ConvectionCoefficients,
Shaft_L1_pd,
Inside,
Value,
8.29,
,
,
Outside,
Value,
29.3;

SurfaceProperties:VaporCoefficients,
Shaft_L1_pd,
Yes,
6.25e-08,
Yes,
2e-08;

AirflowNetwork:MultiZone:Surface,
Shaft_L1_pd,
Shaft_L1_pd_Crack,
Shaft_L1_pd_extN,
1.0,
Constant,
,
1.0,
0.0,
100.0,
0.0,
300000.0;

AirflowNetwork:MultiZone:Surface:Crack,
Shaft_L1_pd_Crack,
0.0048057080572869336,
0.66,
RCC1;

AirflowNetwork:MultiZone:ExternalNode,
Shaft_L1_pd_extN,